                                   MODFLOW 6
                U.S. GEOLOGICAL SURVEY MODULAR HYDROLOGIC MODEL
                          GROUNDWATER FLOW MODEL (GWF)
                            VERSION 6.0.4 03/13/2019

   MODFLOW 6 compiled Mar 13 2019 12:37:09 with IFORT compiler (ver. 19.0.0)

This software has been approved for release by the U.S. Geological 
Survey (USGS). Although the software has been subjected to rigorous 
review, the USGS reserves the right to update the software as needed 
pursuant to further analysis and review. No warranty, expressed or 
implied, is made by the USGS or the U.S. Government as to the 
functionality of the software and related material nor shall the 
fact of release constitute any such warranty. Furthermore, the 
software is released on condition that neither the USGS nor the U.S. 
Government shall be held liable for any damages resulting from its 
authorized or unauthorized use. Also refer to the USGS Water 
Resources Software User Rights Notice for complete use, copyright, 
and distribution information.


MODFLOW was compiled using uniform precision.
Precision of REAL variables: 15


 OPENED test1tr.ic
 FILE TYPE:IC6                    UNIT 1005   STATUS:OLD                 
 FORMAT:FORMATTED              ACCESS:SEQUENTIAL          
 ACTION:READ                


 OPENED test1tr.npf
 FILE TYPE:NPF6                   UNIT 1006   STATUS:OLD                 
 FORMAT:FORMATTED              ACCESS:SEQUENTIAL          
 ACTION:READ                


 OPENED test1tr.sto
 FILE TYPE:STO6                   UNIT 1007   STATUS:OLD                 
 FORMAT:FORMATTED              ACCESS:SEQUENTIAL          
 ACTION:READ                


 OPENED test1tr.oc
 FILE TYPE:OC6                    UNIT 1008   STATUS:OLD                 
 FORMAT:FORMATTED              ACCESS:SEQUENTIAL          
 ACTION:READ                


 OPENED test1tr.dis
 FILE TYPE:DIS6                   UNIT 1009   STATUS:OLD                 
 FORMAT:FORMATTED              ACCESS:SEQUENTIAL          
 ACTION:READ                


 OPENED test1tr.wel
 FILE TYPE:WEL6                   UNIT 1010   STATUS:OLD                 
 FORMAT:FORMATTED              ACCESS:SEQUENTIAL          
 ACTION:READ                


 OPENED test1tr.evt
 FILE TYPE:EVT6                   UNIT 1011   STATUS:OLD                 
 FORMAT:FORMATTED              ACCESS:SEQUENTIAL          
 ACTION:READ                


 OPENED test1tr.rch
 FILE TYPE:RCH6                   UNIT 1012   STATUS:OLD                 
 FORMAT:FORMATTED              ACCESS:SEQUENTIAL          
 ACTION:READ                


 OPENED test1tr.ghb
 FILE TYPE:GHB6                   UNIT 1013   STATUS:OLD                 
 FORMAT:FORMATTED              ACCESS:SEQUENTIAL          
 ACTION:READ                


 OPENED test1tr.sfr
 FILE TYPE:SFR6                   UNIT 1014   STATUS:OLD                 
 FORMAT:FORMATTED              ACCESS:SEQUENTIAL          
 ACTION:READ                

 NAMEFILE OPTIONS:
    FLOWS WILL BE SAVED TO BUDGET FILE SPECIFIED IN OUTPUT CONTROL

 DIS -- STRUCTURED GRID DISCRETIZATION PACKAGE, VERSION 2 : 3/27/2014 - INPUT READ FROM UNIT 1009


 PROCESSING DISCRETIZATION OPTIONS
    MODEL LENGTH UNIT IS FEET
 END OF DISCRETIZATION OPTIONS
 PROCESSING DISCRETIZATION DIMENSIONS
    NLAY =       1
    NROW =      15
    NCOL =      10
 END OF DISCRETIZATION DIMENSIONS
 PROCESSING GRIDDATA

                     DELR =   5000.000    

                     DELC =   5000.000    

 TOP ELEVATION OF LAYER 1

                1           2           3           4           5           6           7           8           9          10
 ............................................................................................................................
   1    1105.       1105.       0.000       0.000       0.000       0.000       0.000       0.000       0.000       0.000    
   2    1105.       1095.       1105.       0.000       0.000       1100.       1100.       1110.       0.000       0.000    
   3    0.000       1100.       1085.       1080.       1078.       1076.       1073.       1090.       0.000       0.000    
   4    1110.       1100.       1090.       1085.       1076.       1080.       1080.       1070.       1100.       0.000    
   5    1110.       1100.       1085.       1080.       1078.       1074.       1077.       1066.       1075.       1080.    
   6    1105.       1095.       1080.       1077.       1073.       1069.       1070.       1063.       1085.       1095.    
   7    1105.       1090.       1075.       1072.       1070.       1065.       1065.       1069.       1090.       0.000    
   8    0.000       1080.       1070.       1068.       1063.       1060.       1063.       1067.       1090.       0.000    
   9    0.000       1075.       1065.       1062.       1058.       1052.       1055.       1065.       1090.       0.000    
  10    0.000       1070.       1060.       1055.       1046.       1046.       1044.       1060.       1088.       1100.    
  11    0.000       1055.       1050.       1045.       1041.       1042.       1040.       1050.       1075.       0.000    
  12    1027.       1028.       1028.       1032.       1032.       1033.       1032.       1040.       1060.       0.000    
  13    997.0       1004.       1008.       1014.       1020.       1027.       1032.       1038.       1050.       0.000    
  14    0.000       1030.       1040.       1045.       1050.       1050.       1050.       1050.       1044.       0.000    
  15    0.000       0.000       1080.       1080.       1080.       1080.       0.000       0.000       0.000       0.000    

   MODEL LAYER BOTTOM EL. FOR LAYER 1

                1           2           3           4           5           6           7           8           9          10
 ............................................................................................................................
   1    1000.       1000.       0.000       0.000       0.000       0.000       0.000       0.000       0.000       0.000    
   2    1000.       900.0       900.0       0.000       0.000       950.0       950.0       950.0       0.000       0.000    
   3    0.000       850.0       670.0       680.0       680.0       770.0       770.0       890.0       0.000       0.000    
   4    925.0       850.0       650.0       650.0       650.0       680.0       740.0       850.0       950.0       0.000    
   5    925.0       800.0       650.0       600.0       600.0       600.0       650.0       720.0       850.0       950.0    
   6    925.0       800.0       650.0       600.0       550.0       600.0       650.0       720.0       850.0       970.0    
   7    925.0       800.0       650.0       600.0       550.0       600.0       650.0       720.0       950.0       0.000    
   8    0.000       850.0       700.0       650.0       570.0       600.0       700.0       850.0       950.0       0.000    
   9    0.000       850.0       700.0       650.0       540.0       580.0       700.0       850.0       950.0       0.000    
  10    0.000       850.0       700.0       630.0       530.0       580.0       650.0       800.0       900.0       950.0    
  11    0.000       850.0       700.0       620.0       580.0       620.0       700.0       800.0       900.0       0.000    
  12    900.0       830.0       710.0       640.0       600.0       650.0       700.0       800.0       900.0       0.000    
  13    900.0       810.0       750.0       700.0       650.0       700.0       750.0       800.0       900.0       0.000    
  14    0.000       950.0       850.0       850.0       850.0       850.0       850.0       850.0       850.0       0.000    
  15    0.000       0.000       950.0       950.0       950.0       950.0       0.000       0.000       0.000       0.000    

                  IDOMAIN FOR LAYER 1

                1           2           3           4           5           6           7           8           9          10
 ............................................................................................................................
   1            1           1           0           0           0           0           0           0           0           0
   2            1           1           1           0           0           1           1           1           0           0
   3            0           1           1           1           1           1           1           1           0           0
   4            1           1           1           1           1           1           1           1           1           0
   5            1           1           1           1           1           1           1           1           1           1
   6            1           1           1           1           1           1           1           1           1           1
   7            1           1           1           1           1           1           1           1           1           0
   8            0           1           1           1           1           1           1           1           1           0
   9            0           1           1           1           1           1           1           1           1           0
  10            0           1           1           1           1           1           1           1           1           1
  11            0           1           1           1           1           1           1           1           1           0
  12            1           1           1           1           1           1           1           1           1           0
  13            1           1           1           1           1           1           1           1           1           0
  14            0           1           1           1           1           1           1           1           1           0
  15            0           0           1           1           1           1           0           0           0           0
 END PROCESSING GRIDDATA

 THE SPECIFIED IDOMAIN RESULTS IN A REDUCED NUMBER OF CELLS.
 NUMBER OF USER NODES:     150
 NUMBER OF NODES IN SOLUTION:     116



 NPF -- NODE PROPERTY FLOW PACKAGE, VERSION 1, 3/30/2015 INPUT READ FROM UNIT 1006


 PROCESSING NPF OPTIONS
 END OF NPF OPTIONS

 WEL   -- WEL PACKAGE, VERSION 8, 2/22/2014 INPUT READ FROM UNIT 1010

 PROCESSING WEL OPTIONS
    WEL BOUNDARIES HAVE NAMES IN LAST COLUMN.
 END OF WEL OPTIONS

 PROCESSING WEL DIMENSIONS
    MAXBOUND =      10
 END OF WEL DIMENSIONS

 GHB   -- GHB PACKAGE, VERSION 8, 2/22/2014 INPUT READ FROM UNIT 1013
 #option block.  Note -- no comments allowed on auxiliary line

 PROCESSING GHB OPTIONS
 END OF GHB OPTIONS

 PROCESSING GHB DIMENSIONS
    MAXBOUND =       2
 END OF GHB DIMENSIONS

 RCH   -- RCH PACKAGE, VERSION 8, 2/22/2014 INPUT READ FROM UNIT 1012

 PROCESSING RCH OPTIONS
    RECHARGE INPUT WILL BE READ AS ARRAY(S).
 END OF RCH OPTIONS

 EVT   -- EVT PACKAGE, VERSION 8, 2/22/2014 INPUT READ FROM UNIT 1011

 PROCESSING EVT OPTIONS
    EVAPOTRANSPIRATION INPUT WILL BE READ AS ARRAYS.

 OPENED test1tr.evt.obs
 FILE TYPE:OBS   UNIT 1016   STATUS:OLD                 
 FORMAT:FORMATTED              ACCESS:SEQUENTIAL          
 ACTION:READ                

 END OF EVT OPTIONS

 SFR   -- SFR PACKAGE, VERSION 8, 2/22/2014 INPUT READ FROM UNIT 1014

 PROCESSING SFR OPTIONS
    SFR FLOWS WILL BE PRINTED TO LISTING FILE.
    UNIT CONVERSION VALUE (   1.486000    ) SPECIFIED.

 OPENED test1tr.sfr.obs
 FILE TYPE:OBS   UNIT 1017   STATUS:OLD                 
 FORMAT:FORMATTED              ACCESS:SEQUENTIAL          
 ACTION:READ                


 OPENED test1tr.sfr.stage.bin
 FILE TYPE:DATA(BINARY)   UNIT 1018   STATUS:REPLACE             
 FORMAT:UNFORMATTED            ACCESS:STREAM              
 ACTION:READWRITE           

    SFR  STAGE  WILL BE SAVED TO FILE: test1tr.sfr.stage.bin                                                                                                                                                                                                                                                                                                                                                                                                                                                                                                                                                                                                                                                                                                                                                                                                                                                                                                                                                                                                                   
    OPENED ON UNIT:    1018

 OPENED test1tr.sfr.cbc
 FILE TYPE:DATA(BINARY)   UNIT 1019   STATUS:REPLACE             
 FORMAT:UNFORMATTED            ACCESS:STREAM              
 ACTION:READWRITE           

    SFR  BUDGET  WILL BE SAVED TO FILE: test1tr.sfr.cbc                                                                                                                                                                                                                                                                                                                                                                                                                                                                                                                                                                                                                                                                                                                                                                                                                                                                                                                                                                                                                         
    OPENED ON UNIT:    1019
 END OF SFR OPTIONS
 #dimension block is required

 PROCESSING SFR DIMENSIONS
    NREACHES = 36
 END OF SFR DIMENSIONS

 IC -- INITIAL CONDITIONS PACKAGE, VERSION 8, 3/28/2015 INPUT READ FROM UNIT 1005
 PROCESSING IC OPTIONS
 END OF IC OPTIONS
 PROCESSING GRIDDATA

     INITIAL HEAD FOR LAYER 1

                1           2           3           4           5           6           7           8           9          10
 ............................................................................................................................
   1    1093.       1089.       6999.       6999.       6999.       6999.       6999.       6999.       6999.       6999.    
   2    1090.       1087.       1081.       6999.       6999.       1072.       1072.       1071.       6999.       6999.    
   3    6999.       1079.       1078.       1074.       1072.       1071.       1069.       1068.       6999.       6999.    
   4    1069.       1071.       1070.       1067.       1066.       1064.       1064.       1066.       1066.       6999.    
   5    1065.       1064.       1063.       1062.       1061.       1061.       1060.       1062.       1066.       1068.    
   6    1060.       1058.       1057.       1056.       1056.       1057.       1057.       1059.       1062.       1066.    
   7    1056.       1053.       1052.       1051.       1051.       1052.       1053.       1056.       1056.       6999.    
   8    6999.       1046.       1046.       1046.       1046.       1046.       1048.       1050.       1050.       6999.    
   9    6999.       1039.       1039.       1040.       1040.       1041.       1042.       1043.       1044.       6999.    
  10    6999.       1031.       1032.       1033.       1034.       1035.       1036.       1038.       1039.       1042.    
  11    6999.       1021.       1023.       1027.       1029.       1030.       1032.       1034.       1036.       6999.    
  12    1001.       1009.       1014.       1020.       1023.       1026.       1029.       1030.       1034.       6999.    
  13    994.5       1000.       1007.       1013.       1019.       1024.       1029.       1034.       1036.       6999.    
  14    6999.       1004.       1009.       1014.       1019.       1024.       1030.       1035.       1039.       6999.    
  15    6999.       6999.       1012.       1015.       1019.       1022.       6999.       6999.       6999.       6999.    
 END PROCESSING GRIDDATA
 #
 PROCESSING GRIDDATA

                ICELLTYPE = 1 FOR LAYER 1

                        K FOR LAYER 1

                1           2           3           4           5           6           7           8           9          10
 ............................................................................................................................
   1   2.0000E-03  2.0000E-03   0.000       0.000       0.000       0.000       0.000       0.000       0.000       0.000    
   2   4.0000E-04  2.0000E-03  2.0000E-03   0.000       0.000      4.0000E-04  4.0000E-04  4.0000E-04   0.000       0.000    
   3    0.000      4.0000E-04  2.0000E-03  2.0000E-03  4.0000E-04  4.0000E-04  4.0000E-04  4.0000E-04   0.000       0.000    
   4   4.0000E-04  4.0000E-04  4.0000E-04  2.0000E-03  2.0000E-03  2.0000E-03  4.0000E-04  4.0000E-04  4.0000E-04   0.000    
   5   4.0000E-04  4.0000E-04  4.0000E-04  2.0000E-03  2.0000E-03  2.0000E-03  2.0000E-03  2.0000E-03  2.0000E-03  2.0000E-03
   6   4.0000E-04  4.0000E-04  4.0000E-04  2.0000E-03  2.0000E-03  2.0000E-03  2.0000E-03  2.0000E-03  4.0000E-04  4.0000E-04
   7   4.0000E-04  4.0000E-04  4.0000E-04  2.0000E-03  2.0000E-03  2.0000E-03  2.0000E-03  2.0000E-03  4.0000E-04   0.000    
   8    0.000      4.0000E-04  4.0000E-04  2.0000E-03  2.0000E-03  2.0000E-03  2.0000E-03  4.0000E-04  4.0000E-04   0.000    
   9    0.000      4.0000E-04  4.0000E-04  2.0000E-03  2.0000E-03  2.0000E-03  2.0000E-03  4.0000E-04  4.0000E-04   0.000    
  10    0.000      4.0000E-04  4.0000E-04  2.0000E-03  2.0000E-03  2.0000E-03  2.0000E-03  4.0000E-04  4.0000E-04  4.0000E-04
  11    0.000      4.0000E-04  4.0000E-04  2.0000E-03  2.0000E-03  2.0000E-03  2.0000E-03  4.0000E-04  4.0000E-04   0.000    
  12   4.0000E-04  4.0000E-04  2.0000E-03  2.0000E-03  2.0000E-03  2.0000E-03  2.0000E-03  4.0000E-04  4.0000E-04   0.000    
  13   2.0000E-03  2.0000E-03  2.0000E-03  2.0000E-03  2.0000E-03  2.0000E-03  2.0000E-03  2.0000E-03  2.0000E-03   0.000    
  14    0.000      4.0000E-04  4.0000E-04  4.0000E-04  4.0000E-04  4.0000E-04  4.0000E-04  4.0000E-04  2.0000E-03   0.000    
  15    0.000       0.000      4.0000E-04  4.0000E-04  4.0000E-04  4.0000E-04   0.000       0.000       0.000       0.000    

                      K33 =   1.000000     FOR LAYER 1
 K22 not provided.  Assuming K22 = K.
 END PROCESSING GRIDDATA

 STO -- STORAGE PACKAGE, VERSION 1, 5/19/2014 INPUT READ FROM UNIT 1007


 #option block.  Note -- no comments allowed on auxiliary line
 PROCESSING STORAGE OPTIONS
 END OF STORAGE OPTIONS
 PROCESSING GRIDDATA

                 ICONVERT = 1 FOR LAYER 1

         SPECIFIC STORAGE =  0.1000000E-05 FOR LAYER 1

           SPECIFIC YIELD FOR LAYER 1

                1           2           3           4           5           6           7           8           9          10
 ............................................................................................................................
   1   0.2000      0.2000       0.000       0.000       0.000       0.000       0.000       0.000       0.000       0.000    
   2   0.1000      0.2000      0.2000       0.000       0.000      0.1000      0.1000      0.1000       0.000       0.000    
   3    0.000      0.1000      0.2000      0.2000      0.1000      0.1000      0.1000      0.1000       0.000       0.000    
   4   0.1000      0.1000      0.1000      0.2000      0.2000      0.2000      0.1000      0.1000      0.1000       0.000    
   5   0.1000      0.1000      0.1000      0.2000      0.2000      0.2000      0.2000      0.2000      0.2000      0.2000    
   6   0.1000      0.1000      0.1000      0.2000      0.2000      0.2000      0.2000      0.2000      0.1000      0.1000    
   7   0.1000      0.1000      0.1000      0.2000      0.2000      0.2000      0.2000      0.2000      0.1000       0.000    
   8    0.000      0.1000      0.1000      0.2000      0.2000      0.2000      0.2000      0.1000      0.1000       0.000    
   9    0.000      0.1000      0.1000      0.2000      0.2000      0.2000      0.2000      0.1000      0.1000       0.000    
  10    0.000      0.1000      0.1000      0.2000      0.2000      0.2000      0.2000      0.1000      0.1000      0.1000    
  11    0.000      0.1000      0.1000      0.2000      0.2000      0.2000      0.2000      0.1000      0.1000       0.000    
  12   0.1000      0.1000      0.2000      0.2000      0.2000      0.2000      0.2000      0.1000      0.1000       0.000    
  13   0.2000      0.2000      0.2000      0.2000      0.2000      0.2000      0.2000      0.2000      0.2000       0.000    
  14    0.000      0.1000      0.1000      0.1000      0.1000      0.1000      0.1000      0.1000      0.2000       0.000    
  15    0.000       0.000      0.1000      0.1000      0.1000      0.1000       0.000       0.000       0.000       0.000    
 END PROCESSING GRIDDATA
    BINARY GRID INFORMATION WILL BE WRITTEN TO:
      UNIT NUMBER: 1020
      FILE NAME: R:\Bravo\example\mf6.0.4\ForDPL\mf6_example\ExampleModel_1\test1tr.dis.grb

 OPENED R:\Bravo\example\mf6.0.4\ForDPL\mf6_example\ExampleModel_1\test1tr.dis.grb
 FILE TYPE:DATA(BINARY)   UNIT 1020   STATUS:REPLACE             
 FORMAT:UNFORMATTED            ACCESS:STREAM              
 ACTION:READWRITE           

      THE LAST TIME STEP WILL BE PRINTED
      THE LAST TIME STEP WILL BE PRINTED
 PROCESSING OC OPTIONS
    HEAD INFORMATION WILL BE WRITTEN TO:
      UNIT NUMBER: 1021
      FILE NAME: test1tr.hds

 OPENED test1tr.hds
 FILE TYPE:DATA(BINARY)   UNIT 1021   STATUS:REPLACE             
 FORMAT:UNFORMATTED            ACCESS:STREAM              
 ACTION:READWRITE           

    BUDGET INFORMATION WILL BE WRITTEN TO:
      UNIT NUMBER: 1022
      FILE NAME: test1tr.cbc

 OPENED test1tr.cbc
 FILE TYPE:DATA(BINARY)   UNIT 1022   STATUS:REPLACE             
 FORMAT:UNFORMATTED            ACCESS:STREAM              
 ACTION:READWRITE           

 END OF OC OPTIONS

The observation utility is active for "EVT-1"

Processing observation options:

The PRINT_INPUT option has been specified.


Observations read from file "test1tr.evt.obs":
Name                                      Type                             Time         Location data
----------------------------------------  -------------------------------  -----------  --------------------------
ET1-1                                     Continuous EVT                   All times    "1  1  1"
ET1-2                                     Continuous EVT                   All times    "1  1  2"
ET2-1                                     Continuous EVT                   All times    "1  2  1"
ET2-2                                     Continuous EVT                   All times    "1  2  2"
ET2-3                                     Continuous EVT                   All times    "1  2  3"
ET2-6                                     Continuous EVT                   All times    "1  2  6"
ET2-7                                     Continuous EVT                   All times    "1  2  7"
ET2-8                                     Continuous EVT                   All times    "1  2  8"
ET3-2                                     Continuous EVT                   All times    "1  3  2"
ET3-3                                     Continuous EVT                   All times    "1  3  3"
ET3-4                                     Continuous EVT                   All times    "1  3  4"
ET3-5                                     Continuous EVT                   All times    "1  3  5"
ET3-6                                     Continuous EVT                   All times    "1  3  6"
ET3-7                                     Continuous EVT                   All times    "1  3  7"
ET3-8                                     Continuous EVT                   All times    "1  3  8"
ET4-1                                     Continuous EVT                   All times    "1  4  1"
ET4-2                                     Continuous EVT                   All times    "1  4  2"
ET4-3                                     Continuous EVT                   All times    "1  4  3"
ET4-4                                     Continuous EVT                   All times    "1  4  4"
ET4-5                                     Continuous EVT                   All times    "1  4  5"
ET4-6                                     Continuous EVT                   All times    "1  4  6"
ET4-7                                     Continuous EVT                   All times    "1  4  7"
ET4-8                                     Continuous EVT                   All times    "1  4  8"
ET4-9                                     Continuous EVT                   All times    "1  4  9"
ET5-1                                     Continuous EVT                   All times    "1  5  1"
ET5-2                                     Continuous EVT                   All times    "1  5  2"
ET5-3                                     Continuous EVT                   All times    "1  5  3"
ET5-4                                     Continuous EVT                   All times    "1  5  4"
ET5-5                                     Continuous EVT                   All times    "1  5  5"
ET5-6                                     Continuous EVT                   All times    "1  5  6"
ET5-7                                     Continuous EVT                   All times    "1  5  7"
ET5-8                                     Continuous EVT                   All times    "1  5  8"
ET5-9                                     Continuous EVT                   All times    "1  5  9"
ET5-10                                    Continuous EVT                   All times    "1  5 10"
ET6-1                                     Continuous EVT                   All times    "1  6  1"
ET6-2                                     Continuous EVT                   All times    "1  6  2"
ET6-3                                     Continuous EVT                   All times    "1  6  3"
ET6-4                                     Continuous EVT                   All times    "1  6  4"
ET6-5                                     Continuous EVT                   All times    "1  6  5"
ET6-6                                     Continuous EVT                   All times    "1  6  6"
ET6-7                                     Continuous EVT                   All times    "1  6  7"
ET6-8                                     Continuous EVT                   All times    "1  6  8"
ET6-9                                     Continuous EVT                   All times    "1  6  9"
ET6-10                                    Continuous EVT                   All times    "1  6 10"
ET7-1                                     Continuous EVT                   All times    "1  7  1"
ET7-2                                     Continuous EVT                   All times    "1  7  2"
ET7-3                                     Continuous EVT                   All times    "1  7  3"
ET7-4                                     Continuous EVT                   All times    "1  7  4"
ET7-5                                     Continuous EVT                   All times    "1  7  5"
ET7-6                                     Continuous EVT                   All times    "1  7  6"
ET7-7                                     Continuous EVT                   All times    "1  7  7"
ET7-8                                     Continuous EVT                   All times    "1  7  8"
ET7-9                                     Continuous EVT                   All times    "1  7  9"
ET8-2                                     Continuous EVT                   All times    "1  8  2"
ET8-3                                     Continuous EVT                   All times    "1  8  3"
ET8-4                                     Continuous EVT                   All times    "1  8  4"
ET8-5                                     Continuous EVT                   All times    "1  8  5"
ET8-6                                     Continuous EVT                   All times    "1  8  6"
ET8-7                                     Continuous EVT                   All times    "1  8  7"
ET8-8                                     Continuous EVT                   All times    "1  8  8"
ET8-9                                     Continuous EVT                   All times    "1  8  9"
ET9-2                                     Continuous EVT                   All times    "1  9  2"
ET9-3                                     Continuous EVT                   All times    "1  9  3"
ET9-4                                     Continuous EVT                   All times    "1  9  4"
ET9-5                                     Continuous EVT                   All times    "1  9  5"
ET9-6                                     Continuous EVT                   All times    "1  9  6"
ET9-7                                     Continuous EVT                   All times    "1  9  7"
ET9-8                                     Continuous EVT                   All times    "1  9  8"
ET9-9                                     Continuous EVT                   All times    "1  9  9"
ET10-2                                    Continuous EVT                   All times    "1 10  2"
ET10-3                                    Continuous EVT                   All times    "1 10  3"
ET10-4                                    Continuous EVT                   All times    "1 10  4"
ET10-5                                    Continuous EVT                   All times    "1 10  5"
ET10-6                                    Continuous EVT                   All times    "1 10  6"
ET10-7                                    Continuous EVT                   All times    "1 10  7"
ET10-8                                    Continuous EVT                   All times    "1 10  8"
ET10-9                                    Continuous EVT                   All times    "1 10  9"
ET10-10                                   Continuous EVT                   All times    "1 10 10"
ET11-2                                    Continuous EVT                   All times    "1 11  2"
ET11-3                                    Continuous EVT                   All times    "1 11  3"
ET11-4                                    Continuous EVT                   All times    "1 11  4"
ET11-5                                    Continuous EVT                   All times    "1 11  5"
ET11-6                                    Continuous EVT                   All times    "1 11  6"
ET11-7                                    Continuous EVT                   All times    "1 11  7"
ET11-8                                    Continuous EVT                   All times    "1 11  8"
ET11-9                                    Continuous EVT                   All times    "1 11  9"
ET12-1                                    Continuous EVT                   All times    "1 12  1"
ET12-2                                    Continuous EVT                   All times    "1 12  2"
ET12-3                                    Continuous EVT                   All times    "1 12  3"
ET12-4                                    Continuous EVT                   All times    "1 12  4"
ET12-5                                    Continuous EVT                   All times    "1 12  5"
ET12-6                                    Continuous EVT                   All times    "1 12  6"
ET12-7                                    Continuous EVT                   All times    "1 12  7"
ET12-8                                    Continuous EVT                   All times    "1 12  8"
ET12-9                                    Continuous EVT                   All times    "1 12  9"
ET13-1                                    Continuous EVT                   All times    "1 13  1"
ET13-2                                    Continuous EVT                   All times    "1 13  2"
ET13-3                                    Continuous EVT                   All times    "1 13  3"
ET13-4                                    Continuous EVT                   All times    "1 13  4"
ET13-5                                    Continuous EVT                   All times    "1 13  5"
ET13-6                                    Continuous EVT                   All times    "1 13  6"
ET13-7                                    Continuous EVT                   All times    "1 13  7"
ET13-8                                    Continuous EVT                   All times    "1 13  8"
ET13-9                                    Continuous EVT                   All times    "1 13  9"
ET14-2                                    Continuous EVT                   All times    "1 14  2"
ET14-3                                    Continuous EVT                   All times    "1 14  3"
ET14-4                                    Continuous EVT                   All times    "1 14  4"
ET14-5                                    Continuous EVT                   All times    "1 14  5"
ET14-6                                    Continuous EVT                   All times    "1 14  6"
ET14-7                                    Continuous EVT                   All times    "1 14  7"
ET14-8                                    Continuous EVT                   All times    "1 14  8"
ET14-9                                    Continuous EVT                   All times    "1 14  9"
ET15-3                                    Continuous EVT                   All times    "1 15  3"
ET15-4                                    Continuous EVT                   All times    "1 15  4"
ET15-5                                    Continuous EVT                   All times    "1 15  5"
ET15-6                                    Continuous EVT                   All times    "1 15  6"

The observation utility is active for "SFR-1"

Processing observation options:

Text output number of digits of precision set to: 10
The PRINT_INPUT option has been specified.


Observations read from file "test1tr.sfr.obs":
Name                                      Type                             Time         Location data
----------------------------------------  -------------------------------  -----------  --------------------------
GAGE1STAGE                                Continuous STAGE                 All times    "4"
GAGE2STAGE                                Continuous STAGE                 All times    "7"
GAGE3STAGE                                Continuous STAGE                 All times    "14"
GAGE4STAGE                                Continuous STAGE                 All times    "18"
GAGE5STAGE                                Continuous STAGE                 All times    "22"
GAGE6STAGE                                Continuous STAGE                 All times    "27"
GAGE7STAGE                                Continuous STAGE                 All times    "30"
GAGE8STAGE                                Continuous STAGE                 All times    "36"
GAGE9STAGE                                Continuous STAGE                 All times    "10"
QAQ04                                     Continuous SFR                   All times    "4"
QAQ07                                     Continuous SFR                   All times    "7"
QAQ14                                     Continuous SFR                   All times    "14"
QAQ18                                     Continuous SFR                   All times    "18"
QAQ22                                     Continuous SFR                   All times    "22"
QAQ27                                     Continuous SFR                   All times    "27"
QAQ30                                     Continuous SFR                   All times    "30"
QAQ36                                     Continuous SFR                   All times    "36"
QAQ10                                     Continuous SFR                   All times    "10"
USINF10                                   Continuous UPSTREAM-FLOW         All times    "10"
INF10                                     Continuous INFLOW                All times    "10"
OUT10                                     Continuous OUTFLOW               All times    "10"
DS10                                      Continuous DOWNSTREAM-FLOW       All times    "10"
USINF36                                   Continuous UPSTREAM-FLOW         All times    "36"
INF36                                     Continuous INFLOW                All times    "36"
OUT36                                     Continuous OUTFLOW               All times    "36"
EXTOUT36                                  Continuous EXT-OUTFLOW           All times    "36"
DS36                                      Continuous DOWNSTREAM-FLOW       All times    "36"
 #rch    k    i    j   length width          slope     sbot bthick      hk rough nconn ustrf ndiv

 PROCESSING SFR PACKAGEDATA
 END OF SFR PACKAGEDATA

 PROCESSING SFR CONNECTIONDATA
 END OF SFR CONNECTIONDATA
 # ireach idivno ireach2 cprior

 PROCESSING SFR DIVERSIONS
 END OF SFR DIVERSIONS

 BEGIN READING OUTPUT CONTROL FOR STRESS PERIOD 1
      THE FOLLOWING FREQUENCY WILL BE PRINTED: 5
      THE FOLLOWING FREQUENCY WILL BE SAVED: 5
      THE FOLLOWING FREQUENCY WILL BE PRINTED: 5
      THE FOLLOWING FREQUENCY WILL BE SAVED: 5

 END READING OUTPUT CONTROL FOR STRESS PERIOD 1


 STRESS PERIOD 1 IS TRANSIENT

 #        k         i         j      flux    name

  EVAPOTRANSPIRATION RATE =  0.9500000E-07

         EXTINCTION DEPTH =   15.00000    
 UBDSV1 SAVING           STO-SS ON UNIT   1022 AT TIME STEP      5, STRESS PERIOD      1
 UBDSV1 SAVING           STO-SY ON UNIT   1022 AT TIME STEP      5, STRESS PERIOD      1
 UBDSV1 SAVING     FLOW-JA-FACE ON UNIT   1022 AT TIME STEP      5, STRESS PERIOD      1
 UBDSV06 SAVING              WEL IN MODEL GWF_1            PACKAGE GWF_1           CONNECTED TO MODEL GWF_1            PACKAGE WEL-1            ON UNIT   1022 AT TIME STEP      5, STRESS PERIOD      1
 UBDSV06 SAVING              GHB IN MODEL GWF_1            PACKAGE GWF_1           CONNECTED TO MODEL GWF_1            PACKAGE GHB-1            ON UNIT   1022 AT TIME STEP      5, STRESS PERIOD      1
 UBDSV06 SAVING              RCH IN MODEL GWF_1            PACKAGE GWF_1           CONNECTED TO MODEL GWF_1            PACKAGE RCH-1            ON UNIT   1022 AT TIME STEP      5, STRESS PERIOD      1
 UBDSV06 SAVING              EVT IN MODEL GWF_1            PACKAGE GWF_1           CONNECTED TO MODEL GWF_1            PACKAGE EVT-1            ON UNIT   1022 AT TIME STEP      5, STRESS PERIOD      1
 UBDSV06 SAVING              SFR IN MODEL GWF_1            PACKAGE GWF_1           CONNECTED TO MODEL GWF_1            PACKAGE SFR-1            ON UNIT   1022 AT TIME STEP      5, STRESS PERIOD      1

              SFR (SFR-1)   PERIOD 1   STEP 5
 BOUNDARY        1  CELL              (1,1,1)   RATE    0.775419    
 BOUNDARY        2  CELL              (1,2,2)   RATE     2.14433    
 BOUNDARY        3  CELL              (1,3,3)   RATE     2.95385    
 BOUNDARY        4  CELL              (1,3,4)   RATE     2.67042    
 BOUNDARY        5  CELL              (1,4,5)   RATE     2.77285    
 BOUNDARY        6  CELL              (1,5,6)   RATE     2.05642    
 BOUNDARY        7  CELL              (1,6,6)   RATE     1.97802    
 BOUNDARY        8  CELL              (1,7,6)   RATE     1.42070    
 BOUNDARY        9  CELL              (1,8,6)   RATE     0.00000    
 BOUNDARY       10  CELL              (1,3,5)   RATE     1.93920    
 BOUNDARY       11  CELL              (1,3,6)   RATE     1.15690    
 BOUNDARY       12  CELL              (1,3,7)   RATE    0.220188    
 BOUNDARY       13  CELL              (1,4,8)   RATE    0.463738    
 BOUNDARY       14  CELL              (1,5,8)   RATE    0.854302    
 BOUNDARY       15  CELL              (1,6,8)   RATE    0.632381    
 BOUNDARY       16  CELL             (1,5,10)   RATE    0.905253    
 BOUNDARY       17  CELL              (1,5,9)   RATE     1.78348    
 BOUNDARY       18  CELL              (1,6,8)   RATE     1.22572    
 BOUNDARY       19  CELL              (1,6,8)   RATE   -0.203065    
 BOUNDARY       20  CELL              (1,7,7)   RATE     1.28491    
 BOUNDARY       21  CELL              (1,8,7)   RATE     1.56833    
 BOUNDARY       22  CELL              (1,8,6)   RATE     1.28621    
 BOUNDARY       23  CELL              (1,9,6)   RATE     2.04715    
 BOUNDARY       24  CELL             (1,10,7)   RATE     1.73246    
 BOUNDARY       25  CELL             (1,11,7)   RATE     1.33083    
 BOUNDARY       26  CELL             (1,12,7)   RATE     0.00000    
 BOUNDARY       27  CELL             (1,13,7)   RATE   -0.519449    
 BOUNDARY       28  CELL             (1,14,9)   RATE     2.50894    
 BOUNDARY       29  CELL             (1,13,8)   RATE     3.52293    
 BOUNDARY       30  CELL             (1,13,7)   RATE     2.70448    
 BOUNDARY       31  CELL             (1,13,6)   RATE    0.758651    
 BOUNDARY       32  CELL             (1,13,5)   RATE    -1.78627    
 BOUNDARY       33  CELL             (1,13,4)   RATE    -3.45755    
 BOUNDARY       34  CELL             (1,13,3)   RATE    -3.68959    
 BOUNDARY       35  CELL             (1,13,2)   RATE    -1.60712    
 BOUNDARY       36  CELL             (1,13,1)   RATE   -4.128097E-02

 UBDSV06 SAVING     FLOW-JA-FACE IN MODEL GWF_1            PACKAGE SFR-1           CONNECTED TO MODEL GWF_1            PACKAGE SFR-1            ON UNIT   1019 AT TIME STEP      5, STRESS PERIOD      1
 UBDSV06 SAVING              GWF IN MODEL GWF_1            PACKAGE SFR-1           CONNECTED TO MODEL GWF_1            PACKAGE GWF_1            ON UNIT   1019 AT TIME STEP      5, STRESS PERIOD      1
 UBDSV06 SAVING       EXT-INFLOW IN MODEL GWF_1            PACKAGE SFR-1           CONNECTED TO MODEL GWF_1            PACKAGE SFR-1            ON UNIT   1019 AT TIME STEP      5, STRESS PERIOD      1
 UBDSV06 SAVING         RAINFALL IN MODEL GWF_1            PACKAGE SFR-1           CONNECTED TO MODEL GWF_1            PACKAGE SFR-1            ON UNIT   1019 AT TIME STEP      5, STRESS PERIOD      1
 UBDSV06 SAVING           RUNOFF IN MODEL GWF_1            PACKAGE SFR-1           CONNECTED TO MODEL GWF_1            PACKAGE SFR-1            ON UNIT   1019 AT TIME STEP      5, STRESS PERIOD      1
 UBDSV06 SAVING      EVAPORATION IN MODEL GWF_1            PACKAGE SFR-1           CONNECTED TO MODEL GWF_1            PACKAGE SFR-1            ON UNIT   1019 AT TIME STEP      5, STRESS PERIOD      1
 UBDSV06 SAVING      EXT-OUTFLOW IN MODEL GWF_1            PACKAGE SFR-1           CONNECTED TO MODEL GWF_1            PACKAGE SFR-1            ON UNIT   1019 AT TIME STEP      5, STRESS PERIOD      1
1
  HEAD IN LAYER   1 AT END OF TIME STEP   5 IN STRESS PERIOD    1
  ---------------------------------------------------------------------------

            1           2           3           4           5           6           7           8           9          10
 ........................................................................................................................
   1    1093.       1089.      1.0000E+30  1.0000E+30  1.0000E+30  1.0000E+30  1.0000E+30  1.0000E+30  1.0000E+30  1.0000E+30
   2    1090.       1087.       1081.      1.0000E+30  1.0000E+30   1072.       1071.       1071.      1.0000E+30  1.0000E+30
   3   1.0000E+30   1079.       1077.       1073.       1072.       1070.       1069.       1068.      1.0000E+30  1.0000E+30
   4    1069.       1071.       1070.       1066.       1064.       1063.       1064.       1066.       1066.      1.0000E+30
   5    1065.       1064.       1062.       1058.       1058.       1059.       1060.       1062.       1066.       1068.    
   6    1060.       1058.       1054.       1048.       1049.       1054.       1056.       1059.       1062.       1066.    
   7    1056.       1052.       1048.       1040.       1042.       1049.       1052.       1055.       1056.      1.0000E+30
   8   1.0000E+30   1046.       1042.       1034.       1036.       1043.       1047.       1050.       1050.      1.0000E+30
   9   1.0000E+30   1039.       1036.       1028.       1031.       1038.       1040.       1043.       1044.      1.0000E+30
  10   1.0000E+30   1031.       1029.       1024.       1027.       1033.       1036.       1037.       1039.       1042.    
  11   1.0000E+30   1021.       1022.       1024.       1026.       1029.       1031.       1033.       1036.      1.0000E+30
  12    1001.       1009.       1014.       1018.       1022.       1025.       1028.       1030.       1034.      1.0000E+30
  13    993.3       998.7       1005.       1012.       1017.       1023.       1028.       1033.       1036.      1.0000E+30
  14   1.0000E+30   1004.       1009.       1013.       1019.       1024.       1029.       1035.       1038.      1.0000E+30
  15   1.0000E+30  1.0000E+30   1012.       1015.       1019.       1022.      1.0000E+30  1.0000E+30  1.0000E+30  1.0000E+30

 HEAD WILL BE SAVED ON UNIT 1021 AT END OF TIME STEP    5, STRESS PERIOD    1



 SFR (SFR-1) FLOWS   PERIOD      1   STEP        5
 ----------------------------------------------------------------------------------------------------------------------------------------------------
 REACH  REACH                 EXTERNAL      REACH       REACH       REACH       REACH       REACH       REACH     EXTERNAL      REACH      PERCENT   
  NO.   (LAYER,ROW,COLUMN)     INFLOW      INFLOW     RAINFALL     RUNOFF      LEAKAGE   EVAPORATION   OUTFLOW     OUTFLOW    IN - OUT   DIFFERENCE  
 ----------------------------------------------------------------------------------------------------------------------------------------------------
      1 (1,1,1)                25.00       0.000       0.000       0.000     -0.7754       0.000      -24.22       0.000       0.000       0.000     
      2 (1,2,2)                0.000       24.22       0.000       0.000      -2.144       0.000      -22.08       0.000       0.000       0.000     
      3 (1,3,3)                0.000       22.08       0.000       0.000      -2.954       0.000      -19.13       0.000       0.000       0.000     
      4 (1,3,4)                0.000       19.13       0.000       0.000      -2.670       0.000      -16.46       0.000       0.000       0.000     
      5 (1,4,5)                0.000       8.228       0.000       0.000      -2.773       0.000      -5.455       0.000       0.000       0.000     
      6 (1,5,6)                0.000       5.455       0.000       0.000      -2.056       0.000      -3.399       0.000       0.000       0.000     
      7 (1,6,6)                0.000       3.399       0.000       0.000      -1.978       0.000      -1.421       0.000       0.000       0.000     
      8 (1,7,6)                0.000       1.421       0.000       0.000      -1.421       0.000       0.000       0.000       0.000       0.000     
      9 (1,8,6)                0.000       0.000       0.000       0.000       0.000       0.000       0.000       0.000       0.000       0.000     
     10 (1,3,5)                0.000       8.228       0.000       0.000      -1.939       0.000      -6.289       0.000       0.000       0.000     
     11 (1,3,6)                0.000       6.289       0.000       0.000      -1.157       0.000      -5.132       0.000       0.000       0.000     
     12 (1,3,7)                0.000       5.132       0.000       0.000     -0.2202       0.000      -4.912       0.000       0.000       0.000     
     13 (1,4,8)                0.000       4.912       0.000       0.000     -0.4637       0.000      -4.448       0.000       0.000       0.000     
     14 (1,5,8)                0.000       4.448       0.000       0.000     -0.8543       0.000      -3.594       0.000       0.000       0.000     
     15 (1,6,8)                0.000       3.594       0.000       0.000     -0.6324       0.000      -2.961       0.000       0.000       0.000     
     16 (1,5,10)               10.00       0.000       0.000       0.000     -0.9053       0.000      -9.095       0.000       0.000       0.000     
     17 (1,5,9)                0.000       9.095       0.000       0.000      -1.783       0.000      -7.311       0.000       0.000       0.000     
     18 (1,6,8)                0.000       7.311       0.000       0.000      -1.226       0.000      -6.086       0.000       0.000       0.000     
     19 (1,6,8)                0.000       9.047       0.000       0.000      0.2031       0.000      -9.250       0.000       0.000       0.000     
     20 (1,7,7)                0.000       9.250       0.000       0.000      -1.285       0.000      -7.965       0.000       0.000       0.000     
     21 (1,8,7)                0.000       7.965       0.000       0.000      -1.568       0.000      -6.397       0.000       0.000       0.000     
     22 (1,8,6)                0.000       6.397       0.000       0.000      -1.286       0.000      -5.110       0.000       0.000       0.000     
     23 (1,9,6)                0.000       5.110       0.000       0.000      -2.047       0.000      -3.063       0.000       0.000       0.000     
     24 (1,10,7)               0.000       3.063       0.000       0.000      -1.732       0.000      -1.331       0.000       0.000       0.000     
     25 (1,11,7)               0.000       1.331       0.000       0.000      -1.331       0.000       0.000       0.000       0.000       0.000     
     26 (1,12,7)               0.000       0.000       0.000       0.000       0.000       0.000       0.000       0.000       0.000       0.000     
     27 (1,13,7)               0.000       0.000       0.000       0.000      0.5194       0.000     -0.5194       0.000       0.000       0.000     
     28 (1,14,9)               150.0       0.000       0.000       0.000      -2.509       0.000      -147.5       0.000       0.000       0.000     
     29 (1,13,8)               0.000       147.5       0.000       0.000      -3.523       0.000      -144.0       0.000       0.000       0.000     
     30 (1,13,7)               0.000       144.0       0.000       0.000      -2.704       0.000      -141.3       0.000       0.000       0.000     
     31 (1,13,6)               0.000       141.8       0.000       0.000     -0.7587       0.000      -141.0       0.000       0.000       0.000     
     32 (1,13,5)               0.000       141.0       0.000       0.000       1.786       0.000      -142.8       0.000       0.000       0.000     
     33 (1,13,4)               0.000       142.8       0.000       0.000       3.458       0.000      -146.3       0.000       0.000       0.000     
     34 (1,13,3)               0.000       146.3       0.000       0.000       3.690       0.000      -150.0       0.000       0.000       0.000     
     35 (1,13,2)               0.000       150.0       0.000       0.000       1.607       0.000      -151.6       0.000       0.000       0.000     
     36 (1,13,1)               0.000       151.6       0.000       0.000      0.4128E-01   0.000       0.000      -151.6       0.000       0.000     


  SFR-1 BUDGET FOR ENTIRE MODEL AT END OF TIME STEP    5, STRESS PERIOD   1
  ------------------------------------------------------------------------------

     CUMULATIVE SFR-1      L**3       RATES FOR THIS TIME STEP      L**3/T
     ------------------                 ------------------------

           IN:                                      IN:
           ---                                      ---
          EXT-INFLOW =  1531156672.2705            EXT-INFLOW =         185.0000
            RAINFALL =           0.0000              RAINFALL =           0.0000
              RUNOFF =           0.0000                RUNOFF =           0.0000
                 GWF =   123943229.7421                   GWF =          11.3043
         EVAPORATION =           0.0000           EVAPORATION =           0.0000
         EXT-OUTFLOW =           0.0000           EXT-OUTFLOW =           0.0000

            TOTAL IN =  1655099902.0126              TOTAL IN =         196.3043

          OUT:                                     OUT:
          ----                                     ----
          EXT-INFLOW =           0.0000            EXT-INFLOW =           0.0000
            RAINFALL =           0.0000              RAINFALL =           0.0000
              RUNOFF =           0.0000                RUNOFF =           0.0000
                 GWF =   340429557.2804                   GWF =          44.6981
         EVAPORATION =           0.0000           EVAPORATION =           0.0000
         EXT-OUTFLOW =  1314670344.7322           EXT-OUTFLOW =         151.6063

           TOTAL OUT =  1655099902.0126             TOTAL OUT =         196.3043

            IN - OUT =           0.0000              IN - OUT =           0.0000

 PERCENT DISCREPANCY =           0.00     PERCENT DISCREPANCY =           0.00



  VOLUME BUDGET FOR ENTIRE MODEL AT END OF TIME STEP    5, STRESS PERIOD   1
  ---------------------------------------------------------------------------------------------------

     CUMULATIVE VOLUME      L**3       RATES FOR THIS TIME STEP      L**3/T          PACKAGE NAME    
     ------------------                 ------------------------                     ----------------

           IN:                                      IN:
           ---                                      ---
              STO-SS =     6524247.1066                STO-SS =           0.7324     STORAGE         
              STO-SY =   826842428.4560                STO-SY =          89.8169     STORAGE         
                 WEL =           0.0000                   WEL =           0.0000     WEL-1           
                 GHB =     2051119.8914                   GHB =           0.2515     GHB-1           
                 RCH =    14846012.3291                   RCH =           1.7938     RCH-1           
                 EVT =           0.0000                   EVT =           0.0000     EVT-1           
                 SFR =   340429562.3170                   SFR =          44.6981     SFR-1           

            TOTAL IN =  1190693370.1002              TOTAL IN =         137.2926

          OUT:                                     OUT:
          ----                                     ----
              STO-SS =        3478.4097                STO-SS =           0.0000     STORAGE         
              STO-SY =      406734.8032                STO-SY =           0.0000     STORAGE         
                 WEL =   827652255.2814                   WEL =         100.0000     WEL-1           
                 GHB =     1747157.4267                   GHB =           0.2020     GHB-1           
                 RCH =           0.0000                   RCH =           0.0000     RCH-1           
                 EVT =   236940592.4334                   EVT =          25.7862     EVT-1           
                 SFR =   123943152.7391                   SFR =          11.3043     SFR-1           

           TOTAL OUT =  1190693371.0934             TOTAL OUT =         137.2926

            IN - OUT =          -0.9932              IN - OUT =      -4.5840E-07

 PERCENT DISCREPANCY =          -0.00     PERCENT DISCREPANCY =          -0.00




         TIME SUMMARY AT END OF TIME STEP    5 IN STRESS PERIOD    1
                    SECONDS     MINUTES      HOURS       DAYS        YEARS
                    -----------------------------------------------------------
   TIME STEP LENGTH 1.98484E+06  33081.      551.34      22.973     6.28958E-02
 STRESS PERIOD TIME 8.27652E+06 1.37942E+05  2299.0      95.793     0.26227    
         TOTAL TIME 8.27652E+06 1.37942E+05  2299.0      95.793     0.26227    
 UBDSV1 SAVING           STO-SS ON UNIT   1022 AT TIME STEP     10, STRESS PERIOD      1
 UBDSV1 SAVING           STO-SY ON UNIT   1022 AT TIME STEP     10, STRESS PERIOD      1
 UBDSV1 SAVING     FLOW-JA-FACE ON UNIT   1022 AT TIME STEP     10, STRESS PERIOD      1
 UBDSV06 SAVING              WEL IN MODEL GWF_1            PACKAGE GWF_1           CONNECTED TO MODEL GWF_1            PACKAGE WEL-1            ON UNIT   1022 AT TIME STEP     10, STRESS PERIOD      1
 UBDSV06 SAVING              GHB IN MODEL GWF_1            PACKAGE GWF_1           CONNECTED TO MODEL GWF_1            PACKAGE GHB-1            ON UNIT   1022 AT TIME STEP     10, STRESS PERIOD      1
 UBDSV06 SAVING              RCH IN MODEL GWF_1            PACKAGE GWF_1           CONNECTED TO MODEL GWF_1            PACKAGE RCH-1            ON UNIT   1022 AT TIME STEP     10, STRESS PERIOD      1
 UBDSV06 SAVING              EVT IN MODEL GWF_1            PACKAGE GWF_1           CONNECTED TO MODEL GWF_1            PACKAGE EVT-1            ON UNIT   1022 AT TIME STEP     10, STRESS PERIOD      1
 UBDSV06 SAVING              SFR IN MODEL GWF_1            PACKAGE GWF_1           CONNECTED TO MODEL GWF_1            PACKAGE SFR-1            ON UNIT   1022 AT TIME STEP     10, STRESS PERIOD      1

              SFR (SFR-1)   PERIOD 1   STEP 10
 BOUNDARY        1  CELL              (1,1,1)   RATE    0.791301    
 BOUNDARY        2  CELL              (1,2,2)   RATE     2.21879    
 BOUNDARY        3  CELL              (1,3,3)   RATE     2.95179    
 BOUNDARY        4  CELL              (1,3,4)   RATE     2.66844    
 BOUNDARY        5  CELL              (1,4,5)   RATE     2.77124    
 BOUNDARY        6  CELL              (1,5,6)   RATE     2.05500    
 BOUNDARY        7  CELL              (1,6,6)   RATE     1.97628    
 BOUNDARY        8  CELL              (1,7,6)   RATE     1.38233    
 BOUNDARY        9  CELL              (1,8,6)   RATE     0.00000    
 BOUNDARY       10  CELL              (1,3,5)   RATE     2.06210    
 BOUNDARY       11  CELL              (1,3,6)   RATE     1.54001    
 BOUNDARY       12  CELL              (1,3,7)   RATE    0.383729    
 BOUNDARY       13  CELL              (1,4,8)   RATE    0.642962    
 BOUNDARY       14  CELL              (1,5,8)   RATE     1.38841    
 BOUNDARY       15  CELL              (1,6,8)   RATE    0.698842    
 BOUNDARY       16  CELL             (1,5,10)   RATE    0.905253    
 BOUNDARY       17  CELL              (1,5,9)   RATE     1.78348    
 BOUNDARY       18  CELL              (1,6,8)   RATE     1.22572    
 BOUNDARY       19  CELL              (1,6,8)   RATE    0.414637    
 BOUNDARY       20  CELL              (1,7,7)   RATE     2.57572    
 BOUNDARY       21  CELL              (1,8,7)   RATE     1.74790    
 BOUNDARY       22  CELL              (1,8,6)   RATE     1.21575    
 BOUNDARY       23  CELL              (1,9,6)   RATE     1.60032    
 BOUNDARY       24  CELL             (1,10,7)   RATE     0.00000    
 BOUNDARY       25  CELL             (1,11,7)   RATE     0.00000    
 BOUNDARY       26  CELL             (1,12,7)   RATE     0.00000    
 BOUNDARY       27  CELL             (1,13,7)   RATE   -0.481078    
 BOUNDARY       28  CELL             (1,14,9)   RATE     2.63735    
 BOUNDARY       29  CELL             (1,13,8)   RATE     3.78598    
 BOUNDARY       30  CELL             (1,13,7)   RATE     3.57978    
 BOUNDARY       31  CELL             (1,13,6)   RATE     1.84540    
 BOUNDARY       32  CELL             (1,13,5)   RATE   -0.397274    
 BOUNDARY       33  CELL             (1,13,4)   RATE    -2.17531    
 BOUNDARY       34  CELL             (1,13,3)   RATE    -2.93247    
 BOUNDARY       35  CELL             (1,13,2)   RATE    -1.38139    
 BOUNDARY       36  CELL             (1,13,1)   RATE    0.117690    

 UBDSV06 SAVING     FLOW-JA-FACE IN MODEL GWF_1            PACKAGE SFR-1           CONNECTED TO MODEL GWF_1            PACKAGE SFR-1            ON UNIT   1019 AT TIME STEP     10, STRESS PERIOD      1
 UBDSV06 SAVING              GWF IN MODEL GWF_1            PACKAGE SFR-1           CONNECTED TO MODEL GWF_1            PACKAGE GWF_1            ON UNIT   1019 AT TIME STEP     10, STRESS PERIOD      1
 UBDSV06 SAVING       EXT-INFLOW IN MODEL GWF_1            PACKAGE SFR-1           CONNECTED TO MODEL GWF_1            PACKAGE SFR-1            ON UNIT   1019 AT TIME STEP     10, STRESS PERIOD      1
 UBDSV06 SAVING         RAINFALL IN MODEL GWF_1            PACKAGE SFR-1           CONNECTED TO MODEL GWF_1            PACKAGE SFR-1            ON UNIT   1019 AT TIME STEP     10, STRESS PERIOD      1
 UBDSV06 SAVING           RUNOFF IN MODEL GWF_1            PACKAGE SFR-1           CONNECTED TO MODEL GWF_1            PACKAGE SFR-1            ON UNIT   1019 AT TIME STEP     10, STRESS PERIOD      1
 UBDSV06 SAVING      EVAPORATION IN MODEL GWF_1            PACKAGE SFR-1           CONNECTED TO MODEL GWF_1            PACKAGE SFR-1            ON UNIT   1019 AT TIME STEP     10, STRESS PERIOD      1
 UBDSV06 SAVING      EXT-OUTFLOW IN MODEL GWF_1            PACKAGE SFR-1           CONNECTED TO MODEL GWF_1            PACKAGE SFR-1            ON UNIT   1019 AT TIME STEP     10, STRESS PERIOD      1
1
  HEAD IN LAYER   1 AT END OF TIME STEP  10 IN STRESS PERIOD    1
  ---------------------------------------------------------------------------

            1           2           3           4           5           6           7           8           9          10
 ........................................................................................................................
   1    1093.       1089.      1.0000E+30  1.0000E+30  1.0000E+30  1.0000E+30  1.0000E+30  1.0000E+30  1.0000E+30  1.0000E+30
   2    1090.       1087.       1081.      1.0000E+30  1.0000E+30   1072.       1071.       1071.      1.0000E+30  1.0000E+30
   3   1.0000E+30   1079.       1076.       1072.       1071.       1069.       1068.       1068.      1.0000E+30  1.0000E+30
   4    1069.       1070.       1068.       1063.       1062.       1061.       1062.       1065.       1066.      1.0000E+30
   5    1064.       1062.       1058.       1053.       1054.       1056.       1058.       1061.       1065.       1068.    
   6    1059.       1056.       1049.       1040.       1042.       1050.       1054.       1058.       1061.       1066.    
   7    1055.       1050.       1041.       1031.       1034.       1043.       1050.       1054.       1056.      1.0000E+30
   8   1.0000E+30   1043.       1034.       1024.       1028.       1037.       1043.       1048.       1050.      1.0000E+30
   9   1.0000E+30   1036.       1029.       1019.       1023.       1032.       1036.       1041.       1044.      1.0000E+30
  10   1.0000E+30   1029.       1024.       1017.       1020.       1028.       1032.       1036.       1039.       1042.    
  11   1.0000E+30   1020.       1019.       1019.       1021.       1026.       1028.       1032.       1035.      1.0000E+30
  12    1001.       1008.       1012.       1016.       1020.       1023.       1026.       1030.       1034.      1.0000E+30
  13    993.2       998.6       1005.       1011.       1017.       1023.       1028.       1033.       1035.      1.0000E+30
  14   1.0000E+30   1004.       1008.       1013.       1018.       1023.       1029.       1034.       1038.      1.0000E+30
  15   1.0000E+30  1.0000E+30   1012.       1015.       1019.       1022.      1.0000E+30  1.0000E+30  1.0000E+30  1.0000E+30

 HEAD WILL BE SAVED ON UNIT 1021 AT END OF TIME STEP   10, STRESS PERIOD    1



 SFR (SFR-1) FLOWS   PERIOD      1   STEP       10
 ----------------------------------------------------------------------------------------------------------------------------------------------------
 REACH  REACH                 EXTERNAL      REACH       REACH       REACH       REACH       REACH       REACH     EXTERNAL      REACH      PERCENT   
  NO.   (LAYER,ROW,COLUMN)     INFLOW      INFLOW     RAINFALL     RUNOFF      LEAKAGE   EVAPORATION   OUTFLOW     OUTFLOW    IN - OUT   DIFFERENCE  
 ----------------------------------------------------------------------------------------------------------------------------------------------------
      1 (1,1,1)                25.00       0.000       0.000       0.000     -0.7913       0.000      -24.21       0.000       0.000       0.000     
      2 (1,2,2)                0.000       24.21       0.000       0.000      -2.219       0.000      -21.99       0.000       0.000       0.000     
      3 (1,3,3)                0.000       21.99       0.000       0.000      -2.952       0.000      -19.04       0.000       0.000       0.000     
      4 (1,3,4)                0.000       19.04       0.000       0.000      -2.668       0.000      -16.37       0.000       0.000       0.000     
      5 (1,4,5)                0.000       8.185       0.000       0.000      -2.771       0.000      -5.414       0.000       0.000       0.000     
      6 (1,5,6)                0.000       5.414       0.000       0.000      -2.055       0.000      -3.359       0.000       0.000       0.000     
      7 (1,6,6)                0.000       3.359       0.000       0.000      -1.976       0.000      -1.382       0.000       0.000       0.000     
      8 (1,7,6)                0.000       1.382       0.000       0.000      -1.382       0.000       0.000       0.000       0.000       0.000     
      9 (1,8,6)                0.000       0.000       0.000       0.000       0.000       0.000       0.000       0.000       0.000       0.000     
     10 (1,3,5)                0.000       8.185       0.000       0.000      -2.062       0.000      -6.123       0.000       0.000       0.000     
     11 (1,3,6)                0.000       6.123       0.000       0.000      -1.540       0.000      -4.583       0.000       0.000       0.000     
     12 (1,3,7)                0.000       4.583       0.000       0.000     -0.3837       0.000      -4.199       0.000       0.000       0.000     
     13 (1,4,8)                0.000       4.199       0.000       0.000     -0.6430       0.000      -3.556       0.000       0.000       0.000     
     14 (1,5,8)                0.000       3.556       0.000       0.000      -1.388       0.000      -2.168       0.000       0.000       0.000     
     15 (1,6,8)                0.000       2.168       0.000       0.000     -0.6988       0.000      -1.469       0.000       0.000       0.000     
     16 (1,5,10)               10.00       0.000       0.000       0.000     -0.9053       0.000      -9.095       0.000       0.000       0.000     
     17 (1,5,9)                0.000       9.095       0.000       0.000      -1.783       0.000      -7.311       0.000       0.000       0.000     
     18 (1,6,8)                0.000       7.311       0.000       0.000      -1.226       0.000      -6.086       0.000       0.000       0.000     
     19 (1,6,8)                0.000       7.554       0.000       0.000     -0.4146       0.000      -7.140       0.000       0.000       0.000     
     20 (1,7,7)                0.000       7.140       0.000       0.000      -2.576       0.000      -4.564       0.000       0.000       0.000     
     21 (1,8,7)                0.000       4.564       0.000       0.000      -1.748       0.000      -2.816       0.000       0.000       0.000     
     22 (1,8,6)                0.000       2.816       0.000       0.000      -1.216       0.000      -1.600       0.000       0.000       0.000     
     23 (1,9,6)                0.000       1.600       0.000       0.000      -1.600       0.000       0.000       0.000       0.000       0.000     
     24 (1,10,7)               0.000       0.000       0.000       0.000       0.000       0.000       0.000       0.000       0.000       0.000     
     25 (1,11,7)               0.000       0.000       0.000       0.000       0.000       0.000       0.000       0.000       0.000       0.000     
     26 (1,12,7)               0.000       0.000       0.000       0.000       0.000       0.000       0.000       0.000       0.000       0.000     
     27 (1,13,7)               0.000       0.000       0.000       0.000      0.4811       0.000     -0.4811       0.000       0.000       0.000     
     28 (1,14,9)               150.0       0.000       0.000       0.000      -2.637       0.000      -147.4       0.000       0.000       0.000     
     29 (1,13,8)               0.000       147.4       0.000       0.000      -3.786       0.000      -143.6       0.000       0.000       0.000     
     30 (1,13,7)               0.000       143.6       0.000       0.000      -3.580       0.000      -140.0       0.000       0.000       0.000     
     31 (1,13,6)               0.000       140.5       0.000       0.000      -1.845       0.000      -138.6       0.000       0.000       0.000     
     32 (1,13,5)               0.000       138.6       0.000       0.000      0.3973       0.000      -139.0       0.000       0.000       0.000     
     33 (1,13,4)               0.000       139.0       0.000       0.000       2.175       0.000      -141.2       0.000       0.000       0.000     
     34 (1,13,3)               0.000       141.2       0.000       0.000       2.932       0.000      -144.1       0.000       0.000       0.000     
     35 (1,13,2)               0.000       144.1       0.000       0.000       1.381       0.000      -145.5       0.000       0.000       0.000     
     36 (1,13,1)               0.000       145.5       0.000       0.000     -0.1177       0.000       0.000      -145.4       0.000       0.000     


  SFR-1 BUDGET FOR ENTIRE MODEL AT END OF TIME STEP   10, STRESS PERIOD   1
  ------------------------------------------------------------------------------

     CUMULATIVE SFR-1      L**3       RATES FOR THIS TIME STEP      L**3/T
     ------------------                 ------------------------

           IN:                                      IN:
           ---                                      ---
          EXT-INFLOW =  3997099804.5289            EXT-INFLOW =         185.0000
            RAINFALL =           0.0000              RAINFALL =           0.0000
              RUNOFF =           0.0000                RUNOFF =           0.0000
                 GWF =   240830208.3396                   GWF =           7.3675
         EVAPORATION =           0.0000           EVAPORATION =           0.0000
         EXT-OUTFLOW =           0.0000           EXT-OUTFLOW =           0.0000

            TOTAL IN =  4237930012.8685              TOTAL IN =         192.3675

          OUT:                                     OUT:
          ----                                     ----
          EXT-INFLOW =           0.0000            EXT-INFLOW =           0.0000
            RAINFALL =           0.0000              RAINFALL =           0.0000
              RUNOFF =           0.0000                RUNOFF =           0.0000
                 GWF =   954902355.2563                   GWF =          46.9662
         EVAPORATION =           0.0000           EVAPORATION =           0.0000
         EXT-OUTFLOW =  3283027657.6122           EXT-OUTFLOW =         145.4013

           TOTAL OUT =  4237930012.8685             TOTAL OUT =         192.3675

            IN - OUT =           0.0000              IN - OUT =           0.0000

 PERCENT DISCREPANCY =           0.00     PERCENT DISCREPANCY =           0.00



  VOLUME BUDGET FOR ENTIRE MODEL AT END OF TIME STEP   10, STRESS PERIOD   1
  ---------------------------------------------------------------------------------------------------

     CUMULATIVE VOLUME      L**3       RATES FOR THIS TIME STEP      L**3/T          PACKAGE NAME    
     ------------------                 ------------------------                     ----------------

           IN:                                      IN:
           ---                                      ---
              STO-SS =    15691954.3925                STO-SS =           0.6629     STORAGE         
              STO-SY =  1921919746.9764                STO-SY =          78.2455     STORAGE         
                 WEL =           0.0000                   WEL =           0.0000     WEL-1           
                 GHB =     5412617.7404                   GHB =           0.2524     GHB-1           
                 RCH =    38755663.6453                   RCH =           1.7938     RCH-1           
                 EVT =           0.0000                   EVT =           0.0000     EVT-1           
                 SFR =   954902369.7625                   SFR =          46.9662     SFR-1           

            TOTAL IN =  2936682352.5172              TOTAL IN =         127.9207

          OUT:                                     OUT:
          ----                                     ----
              STO-SS =        3478.4097                STO-SS =           0.0000     STORAGE         
              STO-SY =      406734.8032                STO-SY =           0.0000     STORAGE         
                 WEL =  2160594488.9345                   WEL =         100.0000     WEL-1           
                 GHB =     4401155.3917                   GHB =           0.1982     GHB-1           
                 RCH =           0.0000                   RCH =           0.0000     RCH-1           
                 EVT =   530446388.6951                   EVT =          20.3550     EVT-1           
                 SFR =   240830112.0347                   SFR =           7.3675     SFR-1           

           TOTAL OUT =  2936682358.2689             TOTAL OUT =         127.9207

            IN - OUT =          -5.7518              IN - OUT =      -5.8691E-07

 PERCENT DISCREPANCY =          -0.00     PERCENT DISCREPANCY =          -0.00




         TIME SUMMARY AT END OF TIME STEP   10 IN STRESS PERIOD    1
                    SECONDS     MINUTES      HOURS       DAYS        YEARS
                    -----------------------------------------------------------
   TIME STEP LENGTH 3.19661E+06  53277.      887.95      36.998     0.10129    
 STRESS PERIOD TIME 2.16059E+07 3.60099E+05  6001.7      250.07     0.68465    
         TOTAL TIME 2.16059E+07 3.60099E+05  6001.7      250.07     0.68465    
 UBDSV1 SAVING           STO-SS ON UNIT   1022 AT TIME STEP     15, STRESS PERIOD      1
 UBDSV1 SAVING           STO-SY ON UNIT   1022 AT TIME STEP     15, STRESS PERIOD      1
 UBDSV1 SAVING     FLOW-JA-FACE ON UNIT   1022 AT TIME STEP     15, STRESS PERIOD      1
 UBDSV06 SAVING              WEL IN MODEL GWF_1            PACKAGE GWF_1           CONNECTED TO MODEL GWF_1            PACKAGE WEL-1            ON UNIT   1022 AT TIME STEP     15, STRESS PERIOD      1
 UBDSV06 SAVING              GHB IN MODEL GWF_1            PACKAGE GWF_1           CONNECTED TO MODEL GWF_1            PACKAGE GHB-1            ON UNIT   1022 AT TIME STEP     15, STRESS PERIOD      1
 UBDSV06 SAVING              RCH IN MODEL GWF_1            PACKAGE GWF_1           CONNECTED TO MODEL GWF_1            PACKAGE RCH-1            ON UNIT   1022 AT TIME STEP     15, STRESS PERIOD      1
 UBDSV06 SAVING              EVT IN MODEL GWF_1            PACKAGE GWF_1           CONNECTED TO MODEL GWF_1            PACKAGE EVT-1            ON UNIT   1022 AT TIME STEP     15, STRESS PERIOD      1
 UBDSV06 SAVING              SFR IN MODEL GWF_1            PACKAGE GWF_1           CONNECTED TO MODEL GWF_1            PACKAGE SFR-1            ON UNIT   1022 AT TIME STEP     15, STRESS PERIOD      1

              SFR (SFR-1)   PERIOD 1   STEP 15
 BOUNDARY        1  CELL              (1,1,1)   RATE    0.814814    
 BOUNDARY        2  CELL              (1,2,2)   RATE     2.59084    
 BOUNDARY        3  CELL              (1,3,3)   RATE     2.94270    
 BOUNDARY        4  CELL              (1,3,4)   RATE     2.65972    
 BOUNDARY        5  CELL              (1,4,5)   RATE     2.76414    
 BOUNDARY        6  CELL              (1,5,6)   RATE     2.04872    
 BOUNDARY        7  CELL              (1,6,6)   RATE     1.96851    
 BOUNDARY        8  CELL              (1,7,6)   RATE     1.21460    
 BOUNDARY        9  CELL              (1,8,6)   RATE     0.00000    
 BOUNDARY       10  CELL              (1,3,5)   RATE     2.05336    
 BOUNDARY       11  CELL              (1,3,6)   RATE     1.95159    
 BOUNDARY       12  CELL              (1,3,7)   RATE    0.736860    
 BOUNDARY       13  CELL              (1,4,8)   RATE     1.09673    
 BOUNDARY       14  CELL              (1,5,8)   RATE     1.70262    
 BOUNDARY       15  CELL              (1,6,8)   RATE    0.454807    
 BOUNDARY       16  CELL             (1,5,10)   RATE    0.905253    
 BOUNDARY       17  CELL              (1,5,9)   RATE     1.78348    
 BOUNDARY       18  CELL              (1,6,8)   RATE     1.22572    
 BOUNDARY       19  CELL              (1,6,8)   RATE     2.02452    
 BOUNDARY       20  CELL              (1,7,7)   RATE     2.46067    
 BOUNDARY       21  CELL              (1,8,7)   RATE     1.60036    
 BOUNDARY       22  CELL              (1,8,6)   RATE     0.00000    
 BOUNDARY       23  CELL              (1,9,6)   RATE     0.00000    
 BOUNDARY       24  CELL             (1,10,7)   RATE     0.00000    
 BOUNDARY       25  CELL             (1,11,7)   RATE     0.00000    
 BOUNDARY       26  CELL             (1,12,7)   RATE     0.00000    
 BOUNDARY       27  CELL             (1,13,7)   RATE   -0.433345    
 BOUNDARY       28  CELL             (1,14,9)   RATE     2.68854    
 BOUNDARY       29  CELL             (1,13,8)   RATE     4.04758    
 BOUNDARY       30  CELL             (1,13,7)   RATE     4.67437    
 BOUNDARY       31  CELL             (1,13,6)   RATE     3.24293    
 BOUNDARY       32  CELL             (1,13,5)   RATE     1.28421    
 BOUNDARY       33  CELL             (1,13,4)   RATE   -0.622384    
 BOUNDARY       34  CELL             (1,13,3)   RATE    -1.92735    
 BOUNDARY       35  CELL             (1,13,2)   RATE    -1.14192    
 BOUNDARY       36  CELL             (1,13,1)   RATE    0.162329    

 UBDSV06 SAVING     FLOW-JA-FACE IN MODEL GWF_1            PACKAGE SFR-1           CONNECTED TO MODEL GWF_1            PACKAGE SFR-1            ON UNIT   1019 AT TIME STEP     15, STRESS PERIOD      1
 UBDSV06 SAVING              GWF IN MODEL GWF_1            PACKAGE SFR-1           CONNECTED TO MODEL GWF_1            PACKAGE GWF_1            ON UNIT   1019 AT TIME STEP     15, STRESS PERIOD      1
 UBDSV06 SAVING       EXT-INFLOW IN MODEL GWF_1            PACKAGE SFR-1           CONNECTED TO MODEL GWF_1            PACKAGE SFR-1            ON UNIT   1019 AT TIME STEP     15, STRESS PERIOD      1
 UBDSV06 SAVING         RAINFALL IN MODEL GWF_1            PACKAGE SFR-1           CONNECTED TO MODEL GWF_1            PACKAGE SFR-1            ON UNIT   1019 AT TIME STEP     15, STRESS PERIOD      1
 UBDSV06 SAVING           RUNOFF IN MODEL GWF_1            PACKAGE SFR-1           CONNECTED TO MODEL GWF_1            PACKAGE SFR-1            ON UNIT   1019 AT TIME STEP     15, STRESS PERIOD      1
 UBDSV06 SAVING      EVAPORATION IN MODEL GWF_1            PACKAGE SFR-1           CONNECTED TO MODEL GWF_1            PACKAGE SFR-1            ON UNIT   1019 AT TIME STEP     15, STRESS PERIOD      1
 UBDSV06 SAVING      EXT-OUTFLOW IN MODEL GWF_1            PACKAGE SFR-1           CONNECTED TO MODEL GWF_1            PACKAGE SFR-1            ON UNIT   1019 AT TIME STEP     15, STRESS PERIOD      1
1
  HEAD IN LAYER   1 AT END OF TIME STEP  15 IN STRESS PERIOD    1
  ---------------------------------------------------------------------------

            1           2           3           4           5           6           7           8           9          10
 ........................................................................................................................
   1    1093.       1089.      1.0000E+30  1.0000E+30  1.0000E+30  1.0000E+30  1.0000E+30  1.0000E+30  1.0000E+30  1.0000E+30
   2    1090.       1086.       1080.      1.0000E+30  1.0000E+30   1071.       1070.       1070.      1.0000E+30  1.0000E+30
   3   1.0000E+30   1077.       1074.       1068.       1067.       1068.       1068.       1068.      1.0000E+30  1.0000E+30
   4    1068.       1068.       1064.       1058.       1057.       1056.       1059.       1065.       1065.      1.0000E+30
   5    1063.       1059.       1053.       1047.       1048.       1051.       1054.       1059.       1064.       1067.    
   6    1057.       1051.       1041.       1033.       1035.       1044.       1049.       1055.       1060.       1065.    
   7    1053.       1044.       1033.       1023.       1026.       1036.       1044.       1050.       1054.      1.0000E+30
   8   1.0000E+30   1036.       1025.       1015.       1019.       1029.       1036.       1044.       1049.      1.0000E+30
   9   1.0000E+30   1029.       1020.       1010.       1014.       1024.       1029.       1037.       1042.      1.0000E+30
  10   1.0000E+30   1023.       1016.       1009.       1013.       1021.       1026.       1032.       1038.       1041.    
  11   1.0000E+30   1017.       1014.       1014.       1016.       1021.       1024.       1029.       1034.      1.0000E+30
  12    999.9       1007.       1010.       1013.       1017.       1021.       1024.       1028.       1033.      1.0000E+30
  13    993.2       998.5       1005.       1011.       1017.       1022.       1028.       1033.       1035.      1.0000E+30
  14   1.0000E+30   1003.       1008.       1012.       1018.       1023.       1028.       1034.       1038.      1.0000E+30
  15   1.0000E+30  1.0000E+30   1012.       1015.       1019.       1022.      1.0000E+30  1.0000E+30  1.0000E+30  1.0000E+30

 HEAD WILL BE SAVED ON UNIT 1021 AT END OF TIME STEP   15, STRESS PERIOD    1



 SFR (SFR-1) FLOWS   PERIOD      1   STEP       15
 ----------------------------------------------------------------------------------------------------------------------------------------------------
 REACH  REACH                 EXTERNAL      REACH       REACH       REACH       REACH       REACH       REACH     EXTERNAL      REACH      PERCENT   
  NO.   (LAYER,ROW,COLUMN)     INFLOW      INFLOW     RAINFALL     RUNOFF      LEAKAGE   EVAPORATION   OUTFLOW     OUTFLOW    IN - OUT   DIFFERENCE  
 ----------------------------------------------------------------------------------------------------------------------------------------------------
      1 (1,1,1)                25.00       0.000       0.000       0.000     -0.8148       0.000      -24.19       0.000       0.000       0.000     
      2 (1,2,2)                0.000       24.19       0.000       0.000      -2.591       0.000      -21.59       0.000       0.000       0.000     
      3 (1,3,3)                0.000       21.59       0.000       0.000      -2.943       0.000      -18.65       0.000       0.000       0.000     
      4 (1,3,4)                0.000       18.65       0.000       0.000      -2.660       0.000      -15.99       0.000       0.000       0.000     
      5 (1,4,5)                0.000       7.996       0.000       0.000      -2.764       0.000      -5.232       0.000      0.8882E-15  0.1111E-13 
      6 (1,5,6)                0.000       5.232       0.000       0.000      -2.049       0.000      -3.183       0.000       0.000       0.000     
      7 (1,6,6)                0.000       3.183       0.000       0.000      -1.969       0.000      -1.215       0.000       0.000       0.000     
      8 (1,7,6)                0.000       1.215       0.000       0.000      -1.215       0.000       0.000       0.000       0.000       0.000     
      9 (1,8,6)                0.000       0.000       0.000       0.000       0.000       0.000       0.000       0.000       0.000       0.000     
     10 (1,3,5)                0.000       7.996       0.000       0.000      -2.053       0.000      -5.943       0.000       0.000       0.000     
     11 (1,3,6)                0.000       5.943       0.000       0.000      -1.952       0.000      -3.991       0.000       0.000       0.000     
     12 (1,3,7)                0.000       3.991       0.000       0.000     -0.7369       0.000      -3.254       0.000       0.000       0.000     
     13 (1,4,8)                0.000       3.254       0.000       0.000      -1.097       0.000      -2.157       0.000       0.000       0.000     
     14 (1,5,8)                0.000       2.157       0.000       0.000      -1.703       0.000     -0.4548       0.000       0.000       0.000     
     15 (1,6,8)                0.000      0.4548       0.000       0.000     -0.4548       0.000       0.000       0.000       0.000       0.000     
     16 (1,5,10)               10.00       0.000       0.000       0.000     -0.9053       0.000      -9.095       0.000       0.000       0.000     
     17 (1,5,9)                0.000       9.095       0.000       0.000      -1.783       0.000      -7.311       0.000       0.000       0.000     
     18 (1,6,8)                0.000       7.311       0.000       0.000      -1.226       0.000      -6.086       0.000       0.000       0.000     
     19 (1,6,8)                0.000       6.086       0.000       0.000      -2.025       0.000      -4.061       0.000      0.8882E-15  0.1459E-13 
     20 (1,7,7)                0.000       4.061       0.000       0.000      -2.461       0.000      -1.600       0.000       0.000       0.000     
     21 (1,8,7)                0.000       1.600       0.000       0.000      -1.600       0.000       0.000       0.000       0.000       0.000     
     22 (1,8,6)                0.000       0.000       0.000       0.000       0.000       0.000       0.000       0.000       0.000       0.000     
     23 (1,9,6)                0.000       0.000       0.000       0.000       0.000       0.000       0.000       0.000       0.000       0.000     
     24 (1,10,7)               0.000       0.000       0.000       0.000       0.000       0.000       0.000       0.000       0.000       0.000     
     25 (1,11,7)               0.000       0.000       0.000       0.000       0.000       0.000       0.000       0.000       0.000       0.000     
     26 (1,12,7)               0.000       0.000       0.000       0.000       0.000       0.000       0.000       0.000       0.000       0.000     
     27 (1,13,7)               0.000       0.000       0.000       0.000      0.4333       0.000     -0.4333       0.000       0.000       0.000     
     28 (1,14,9)               150.0       0.000       0.000       0.000      -2.689       0.000      -147.3       0.000       0.000       0.000     
     29 (1,13,8)               0.000       147.3       0.000       0.000      -4.048       0.000      -143.3       0.000       0.000       0.000     
     30 (1,13,7)               0.000       143.3       0.000       0.000      -4.674       0.000      -138.6       0.000       0.000       0.000     
     31 (1,13,6)               0.000       139.0       0.000       0.000      -3.243       0.000      -135.8       0.000       0.000       0.000     
     32 (1,13,5)               0.000       135.8       0.000       0.000      -1.284       0.000      -134.5       0.000       0.000       0.000     
     33 (1,13,4)               0.000       134.5       0.000       0.000      0.6224       0.000      -135.1       0.000       0.000       0.000     
     34 (1,13,3)               0.000       135.1       0.000       0.000       1.927       0.000      -137.0       0.000       0.000       0.000     
     35 (1,13,2)               0.000       137.0       0.000       0.000       1.142       0.000      -138.2       0.000       0.000       0.000     
     36 (1,13,1)               0.000       138.2       0.000       0.000     -0.1623       0.000       0.000      -138.0       0.000       0.000     


  SFR-1 BUDGET FOR ENTIRE MODEL AT END OF TIME STEP   15, STRESS PERIOD   1
  ------------------------------------------------------------------------------

     CUMULATIVE SFR-1      L**3       RATES FOR THIS TIME STEP      L**3/T
     ------------------                 ------------------------

           IN:                                      IN:
           ---                                      ---
          EXT-INFLOW =  7968525878.4623            EXT-INFLOW =         185.0000
            RAINFALL =           0.0000              RAINFALL =           0.0000
              RUNOFF =           0.0000                RUNOFF =           0.0000
                 GWF =   352550058.2330                   GWF =           4.1250
         EVAPORATION =           0.0000           EVAPORATION =           0.0000
         EXT-OUTFLOW =           0.0000           EXT-OUTFLOW =           0.0000

            TOTAL IN =  8321075936.6953              TOTAL IN =         189.1250

          OUT:                                     OUT:
          ----                                     ----
          EXT-INFLOW =           0.0000            EXT-INFLOW =           0.0000
            RAINFALL =           0.0000              RAINFALL =           0.0000
              RUNOFF =           0.0000                RUNOFF =           0.0000
                 GWF =  2015879110.2426                   GWF =          51.1000
         EVAPORATION =           0.0000           EVAPORATION =           0.0000
         EXT-OUTFLOW =  6305196826.4527           EXT-OUTFLOW =         138.0250

           TOTAL OUT =  8321075936.6953             TOTAL OUT =         189.1250

            IN - OUT =       1.9073E-06              IN - OUT =           0.0000

 PERCENT DISCREPANCY =           0.00     PERCENT DISCREPANCY =           0.00



  VOLUME BUDGET FOR ENTIRE MODEL AT END OF TIME STEP   15, STRESS PERIOD   1
  ---------------------------------------------------------------------------------------------------

     CUMULATIVE VOLUME      L**3       RATES FOR THIS TIME STEP      L**3/T          PACKAGE NAME    
     ------------------                 ------------------------                     ----------------

           IN:                                      IN:
           ---                                      ---
              STO-SS =    28898212.5583                STO-SS =           0.5886     STORAGE         
              STO-SY =  3460846703.7120                STO-SY =          68.1167     STORAGE         
                 WEL =           0.0000                   WEL =           0.0000     WEL-1           
                 GHB =    10836484.6137                   GHB =           0.2528     GHB-1           
                 RCH =    77262396.1864                   RCH =           1.7938     RCH-1           
                 EVT =           0.0000                   EVT =           0.0000     EVT-1           
                 SFR =  2015879140.9435                   SFR =          51.1000     SFR-1           

            TOTAL IN =  5593722938.0140              TOTAL IN =         121.8518

          OUT:                                     OUT:
          ----                                     ----
              STO-SS =        3478.4097                STO-SS =           0.0000     STORAGE         
              STO-SY =      406734.8032                STO-SY =           0.0000     STORAGE         
                 WEL =  4307311285.6553                   WEL =         100.0000     WEL-1           
                 GHB =     8624842.4619                   GHB =           0.1959     GHB-1           
                 RCH =           0.0000                   RCH =           0.0000     RCH-1           
                 EVT =   924826681.2355                   EVT =          17.5310     EVT-1           
                 SFR =   352549940.7990                   SFR =           4.1250     SFR-1           

           TOTAL OUT =  5593722963.3645             TOTAL OUT =         121.8518

            IN - OUT =         -25.3505              IN - OUT =      -1.0972E-07

 PERCENT DISCREPANCY =          -0.00     PERCENT DISCREPANCY =          -0.00




         TIME SUMMARY AT END OF TIME STEP   15 IN STRESS PERIOD    1
                    SECONDS     MINUTES      HOURS       DAYS        YEARS
                    -----------------------------------------------------------
   TIME STEP LENGTH 5.14817E+06  85803.      1430.0      59.585     0.16314    
 STRESS PERIOD TIME 4.30731E+07 7.17885E+05  11965.      498.53      1.3649    
         TOTAL TIME 4.30731E+07 7.17885E+05  11965.      498.53      1.3649    
 UBDSV1 SAVING           STO-SS ON UNIT   1022 AT TIME STEP     20, STRESS PERIOD      1
 UBDSV1 SAVING           STO-SY ON UNIT   1022 AT TIME STEP     20, STRESS PERIOD      1
 UBDSV1 SAVING     FLOW-JA-FACE ON UNIT   1022 AT TIME STEP     20, STRESS PERIOD      1
 UBDSV06 SAVING              WEL IN MODEL GWF_1            PACKAGE GWF_1           CONNECTED TO MODEL GWF_1            PACKAGE WEL-1            ON UNIT   1022 AT TIME STEP     20, STRESS PERIOD      1
 UBDSV06 SAVING              GHB IN MODEL GWF_1            PACKAGE GWF_1           CONNECTED TO MODEL GWF_1            PACKAGE GHB-1            ON UNIT   1022 AT TIME STEP     20, STRESS PERIOD      1
 UBDSV06 SAVING              RCH IN MODEL GWF_1            PACKAGE GWF_1           CONNECTED TO MODEL GWF_1            PACKAGE RCH-1            ON UNIT   1022 AT TIME STEP     20, STRESS PERIOD      1
 UBDSV06 SAVING              EVT IN MODEL GWF_1            PACKAGE GWF_1           CONNECTED TO MODEL GWF_1            PACKAGE EVT-1            ON UNIT   1022 AT TIME STEP     20, STRESS PERIOD      1
 UBDSV06 SAVING              SFR IN MODEL GWF_1            PACKAGE GWF_1           CONNECTED TO MODEL GWF_1            PACKAGE SFR-1            ON UNIT   1022 AT TIME STEP     20, STRESS PERIOD      1

              SFR (SFR-1)   PERIOD 1   STEP 20
 BOUNDARY        1  CELL              (1,1,1)   RATE    0.895577    
 BOUNDARY        2  CELL              (1,2,2)   RATE     3.47078    
 BOUNDARY        3  CELL              (1,3,3)   RATE     2.92032    
 BOUNDARY        4  CELL              (1,3,4)   RATE     2.63823    
 BOUNDARY        5  CELL              (1,4,5)   RATE     2.74660    
 BOUNDARY        6  CELL              (1,5,6)   RATE     2.03303    
 BOUNDARY        7  CELL              (1,6,6)   RATE     1.94862    
 BOUNDARY        8  CELL              (1,7,6)   RATE    0.809299    
 BOUNDARY        9  CELL              (1,8,6)   RATE     0.00000    
 BOUNDARY       10  CELL              (1,3,5)   RATE     2.03175    
 BOUNDARY       11  CELL              (1,3,6)   RATE     1.92799    
 BOUNDARY       12  CELL              (1,3,7)   RATE     1.56519    
 BOUNDARY       13  CELL              (1,4,8)   RATE     2.00820    
 BOUNDARY       14  CELL              (1,5,8)   RATE    4.414521E-03
 BOUNDARY       15  CELL              (1,6,8)   RATE     0.00000    
 BOUNDARY       16  CELL             (1,5,10)   RATE    0.905253    
 BOUNDARY       17  CELL              (1,5,9)   RATE     1.78348    
 BOUNDARY       18  CELL              (1,6,8)   RATE     1.22572    
 BOUNDARY       19  CELL              (1,6,8)   RATE     2.03898    
 BOUNDARY       20  CELL              (1,7,7)   RATE     2.46004    
 BOUNDARY       21  CELL              (1,8,7)   RATE     1.58653    
 BOUNDARY       22  CELL              (1,8,6)   RATE     0.00000    
 BOUNDARY       23  CELL              (1,9,6)   RATE     0.00000    
 BOUNDARY       24  CELL             (1,10,7)   RATE     0.00000    
 BOUNDARY       25  CELL             (1,11,7)   RATE     0.00000    
 BOUNDARY       26  CELL             (1,12,7)   RATE     0.00000    
 BOUNDARY       27  CELL             (1,13,7)   RATE   -0.377452    
 BOUNDARY       28  CELL             (1,14,9)   RATE     2.73946    
 BOUNDARY       29  CELL             (1,13,8)   RATE     4.37230    
 BOUNDARY       30  CELL             (1,13,7)   RATE     5.95717    
 BOUNDARY       31  CELL             (1,13,6)   RATE     4.80900    
 BOUNDARY       32  CELL             (1,13,5)   RATE     3.15645    
 BOUNDARY       33  CELL             (1,13,4)   RATE     1.04758    
 BOUNDARY       34  CELL             (1,13,3)   RATE   -0.805647    
 BOUNDARY       35  CELL             (1,13,2)   RATE   -0.823180    
 BOUNDARY       36  CELL             (1,13,1)   RATE    0.229590    

 UBDSV06 SAVING     FLOW-JA-FACE IN MODEL GWF_1            PACKAGE SFR-1           CONNECTED TO MODEL GWF_1            PACKAGE SFR-1            ON UNIT   1019 AT TIME STEP     20, STRESS PERIOD      1
 UBDSV06 SAVING              GWF IN MODEL GWF_1            PACKAGE SFR-1           CONNECTED TO MODEL GWF_1            PACKAGE GWF_1            ON UNIT   1019 AT TIME STEP     20, STRESS PERIOD      1
 UBDSV06 SAVING       EXT-INFLOW IN MODEL GWF_1            PACKAGE SFR-1           CONNECTED TO MODEL GWF_1            PACKAGE SFR-1            ON UNIT   1019 AT TIME STEP     20, STRESS PERIOD      1
 UBDSV06 SAVING         RAINFALL IN MODEL GWF_1            PACKAGE SFR-1           CONNECTED TO MODEL GWF_1            PACKAGE SFR-1            ON UNIT   1019 AT TIME STEP     20, STRESS PERIOD      1
 UBDSV06 SAVING           RUNOFF IN MODEL GWF_1            PACKAGE SFR-1           CONNECTED TO MODEL GWF_1            PACKAGE SFR-1            ON UNIT   1019 AT TIME STEP     20, STRESS PERIOD      1
 UBDSV06 SAVING      EVAPORATION IN MODEL GWF_1            PACKAGE SFR-1           CONNECTED TO MODEL GWF_1            PACKAGE SFR-1            ON UNIT   1019 AT TIME STEP     20, STRESS PERIOD      1
 UBDSV06 SAVING      EXT-OUTFLOW IN MODEL GWF_1            PACKAGE SFR-1           CONNECTED TO MODEL GWF_1            PACKAGE SFR-1            ON UNIT   1019 AT TIME STEP     20, STRESS PERIOD      1
1
  HEAD IN LAYER   1 AT END OF TIME STEP  20 IN STRESS PERIOD    1
  ---------------------------------------------------------------------------

            1           2           3           4           5           6           7           8           9          10
 ........................................................................................................................
   1    1093.       1089.      1.0000E+30  1.0000E+30  1.0000E+30  1.0000E+30  1.0000E+30  1.0000E+30  1.0000E+30  1.0000E+30
   2    1089.       1085.       1076.      1.0000E+30  1.0000E+30   1068.       1069.       1069.      1.0000E+30  1.0000E+30
   3   1.0000E+30   1074.       1069.       1062.       1061.       1063.       1066.       1066.      1.0000E+30  1.0000E+30
   4    1064.       1063.       1058.       1051.       1049.       1049.       1054.       1063.       1063.      1.0000E+30
   5    1058.       1052.       1045.       1039.       1040.       1044.       1047.       1052.       1059.       1064.    
   6    1052.       1043.       1033.       1024.       1026.       1035.       1042.       1048.       1055.       1062.    
   7    1047.       1035.       1023.       1013.       1017.       1027.       1036.       1042.       1049.      1.0000E+30
   8   1.0000E+30   1026.       1015.       1005.       1009.       1020.       1028.       1036.       1044.      1.0000E+30
   9   1.0000E+30   1019.       1010.       1001.       1005.       1015.       1021.       1030.       1038.      1.0000E+30
  10   1.0000E+30   1015.       1008.       1002.       1005.       1014.       1019.       1026.       1034.       1040.    
  11   1.0000E+30   1011.       1009.       1008.       1011.       1016.       1019.       1025.       1032.      1.0000E+30
  12    998.9       1005.       1008.       1010.       1014.       1018.       1022.       1027.       1032.      1.0000E+30
  13    993.1       998.4       1005.       1010.       1016.       1022.       1028.       1033.       1035.      1.0000E+30
  14   1.0000E+30   1003.       1007.       1012.       1017.       1022.       1028.       1034.       1038.      1.0000E+30
  15   1.0000E+30  1.0000E+30   1011.       1014.       1018.       1022.      1.0000E+30  1.0000E+30  1.0000E+30  1.0000E+30

 HEAD WILL BE SAVED ON UNIT 1021 AT END OF TIME STEP   20, STRESS PERIOD    1



 SFR (SFR-1) FLOWS   PERIOD      1   STEP       20
 ----------------------------------------------------------------------------------------------------------------------------------------------------
 REACH  REACH                 EXTERNAL      REACH       REACH       REACH       REACH       REACH       REACH     EXTERNAL      REACH      PERCENT   
  NO.   (LAYER,ROW,COLUMN)     INFLOW      INFLOW     RAINFALL     RUNOFF      LEAKAGE   EVAPORATION   OUTFLOW     OUTFLOW    IN - OUT   DIFFERENCE  
 ----------------------------------------------------------------------------------------------------------------------------------------------------
      1 (1,1,1)                25.00       0.000       0.000       0.000     -0.8956       0.000      -24.10       0.000       0.000       0.000     
      2 (1,2,2)                0.000       24.10       0.000       0.000      -3.471       0.000      -20.63       0.000       0.000       0.000     
      3 (1,3,3)                0.000       20.63       0.000       0.000      -2.920       0.000      -17.71       0.000       0.000       0.000     
      4 (1,3,4)                0.000       17.71       0.000       0.000      -2.638       0.000      -15.08       0.000       0.000       0.000     
      5 (1,4,5)                0.000       7.538       0.000       0.000      -2.747       0.000      -4.791       0.000       0.000       0.000     
      6 (1,5,6)                0.000       4.791       0.000       0.000      -2.033       0.000      -2.758       0.000       0.000       0.000     
      7 (1,6,6)                0.000       2.758       0.000       0.000      -1.949       0.000     -0.8093       0.000       0.000       0.000     
      8 (1,7,6)                0.000      0.8093       0.000       0.000     -0.8093       0.000       0.000       0.000       0.000       0.000     
      9 (1,8,6)                0.000       0.000       0.000       0.000       0.000       0.000       0.000       0.000       0.000       0.000     
     10 (1,3,5)                0.000       7.538       0.000       0.000      -2.032       0.000      -5.506       0.000       0.000       0.000     
     11 (1,3,6)                0.000       5.506       0.000       0.000      -1.928       0.000      -3.578       0.000       0.000       0.000     
     12 (1,3,7)                0.000       3.578       0.000       0.000      -1.565       0.000      -2.013       0.000       0.000       0.000     
     13 (1,4,8)                0.000       2.013       0.000       0.000      -2.008       0.000     -0.4415E-02   0.000       0.000       0.000     
     14 (1,5,8)                0.000      0.4415E-02   0.000       0.000     -0.4415E-02   0.000       0.000       0.000       0.000       0.000     
     15 (1,6,8)                0.000       0.000       0.000       0.000       0.000       0.000       0.000       0.000       0.000       0.000     
     16 (1,5,10)               10.00       0.000       0.000       0.000     -0.9053       0.000      -9.095       0.000       0.000       0.000     
     17 (1,5,9)                0.000       9.095       0.000       0.000      -1.783       0.000      -7.311       0.000       0.000       0.000     
     18 (1,6,8)                0.000       7.311       0.000       0.000      -1.226       0.000      -6.086       0.000       0.000       0.000     
     19 (1,6,8)                0.000       6.086       0.000       0.000      -2.039       0.000      -4.047       0.000       0.000       0.000     
     20 (1,7,7)                0.000       4.047       0.000       0.000      -2.460       0.000      -1.587       0.000       0.000       0.000     
     21 (1,8,7)                0.000       1.587       0.000       0.000      -1.587       0.000       0.000       0.000       0.000       0.000     
     22 (1,8,6)                0.000       0.000       0.000       0.000       0.000       0.000       0.000       0.000       0.000       0.000     
     23 (1,9,6)                0.000       0.000       0.000       0.000       0.000       0.000       0.000       0.000       0.000       0.000     
     24 (1,10,7)               0.000       0.000       0.000       0.000       0.000       0.000       0.000       0.000       0.000       0.000     
     25 (1,11,7)               0.000       0.000       0.000       0.000       0.000       0.000       0.000       0.000       0.000       0.000     
     26 (1,12,7)               0.000       0.000       0.000       0.000       0.000       0.000       0.000       0.000       0.000       0.000     
     27 (1,13,7)               0.000       0.000       0.000       0.000      0.3775       0.000     -0.3775       0.000       0.000       0.000     
     28 (1,14,9)               150.0       0.000       0.000       0.000      -2.739       0.000      -147.3       0.000       0.000       0.000     
     29 (1,13,8)               0.000       147.3       0.000       0.000      -4.372       0.000      -142.9       0.000       0.000       0.000     
     30 (1,13,7)               0.000       142.9       0.000       0.000      -5.957       0.000      -136.9       0.000       0.000       0.000     
     31 (1,13,6)               0.000       137.3       0.000       0.000      -4.809       0.000      -132.5       0.000       0.000       0.000     
     32 (1,13,5)               0.000       132.5       0.000       0.000      -3.156       0.000      -129.3       0.000       0.000       0.000     
     33 (1,13,4)               0.000       129.3       0.000       0.000      -1.048       0.000      -128.3       0.000       0.000       0.000     
     34 (1,13,3)               0.000       128.3       0.000       0.000      0.8056       0.000      -129.1       0.000       0.000       0.000     
     35 (1,13,2)               0.000       129.1       0.000       0.000      0.8232       0.000      -129.9       0.000       0.000       0.000     
     36 (1,13,1)               0.000       129.9       0.000       0.000     -0.2296       0.000       0.000      -129.7       0.000       0.000     


  SFR-1 BUDGET FOR ENTIRE MODEL AT END OF TIME STEP   20, STRESS PERIOD   1
  ------------------------------------------------------------------------------

     CUMULATIVE SFR-1      L**3       RATES FOR THIS TIME STEP      L**3/T
     ------------------                 ------------------------

           IN:                                      IN:
           ---                                      ---
          EXT-INFLOW = 14364547284.7928            EXT-INFLOW =         185.0000
            RAINFALL =           0.0000              RAINFALL =           0.0000
              RUNOFF =           0.0000                RUNOFF =           0.0000
                 GWF =   442585015.5857                   GWF =           2.0063
         EVAPORATION =           0.0000           EVAPORATION =           0.0000
         EXT-OUTFLOW =           0.0000           EXT-OUTFLOW =           0.0000

            TOTAL IN = 14807132300.3785              TOTAL IN =         187.0063

          OUT:                                     OUT:
          ----                                     ----
          EXT-INFLOW =           0.0000            EXT-INFLOW =           0.0000
            RAINFALL =           0.0000              RAINFALL =           0.0000
              RUNOFF =           0.0000                RUNOFF =           0.0000
                 GWF =  3912362015.7616                   GWF =          57.3116
         EVAPORATION =           0.0000           EVAPORATION =           0.0000
         EXT-OUTFLOW = 10894770284.6169           EXT-OUTFLOW =         129.6947

           TOTAL OUT = 14807132300.3785             TOTAL OUT =         187.0063

            IN - OUT =       1.9073E-06              IN - OUT =           0.0000

 PERCENT DISCREPANCY =           0.00     PERCENT DISCREPANCY =           0.00



  VOLUME BUDGET FOR ENTIRE MODEL AT END OF TIME STEP   20, STRESS PERIOD   1
  ---------------------------------------------------------------------------------------------------

     CUMULATIVE VOLUME      L**3       RATES FOR THIS TIME STEP      L**3/T          PACKAGE NAME    
     ------------------                 ------------------------                     ----------------

           IN:                                      IN:
           ---                                      ---
              STO-SS =    47544434.1968                STO-SS =           0.5102     STORAGE         
              STO-SY =  5603914705.6735                STO-SY =          58.4295     STORAGE         
                 WEL =           0.0000                   WEL =           0.0000     WEL-1           
                 GHB =    19583373.7903                   GHB =           0.2531     GHB-1           
                 RCH =   139277874.0113                   RCH =           1.7938     RCH-1           
                 EVT =           0.0000                   EVT =           0.0000     EVT-1           
                 SFR =  3912362075.1808                   SFR =          57.3116     SFR-1           

            TOTAL IN =  9722682462.8527              TOTAL IN =         118.2981

          OUT:                                     OUT:
          ----                                     ----
              STO-SS =        3478.4097                STO-SS =           0.0000     STORAGE         
              STO-SY =      406734.8032                STO-SY =           0.0000     STORAGE         
                 WEL =  7764620153.9420                   WEL =         100.0000     WEL-1           
                 GHB =    15333251.4665                   GHB =           0.1929     GHB-1           
                 RCH =           0.0000                   RCH =           0.0000     RCH-1           
                 EVT =  1499734019.9098                   EVT =          16.0989     EVT-1           
                 SFR =   442584875.4940                   SFR =           2.0063     SFR-1           

           TOTAL OUT =  9722682514.0252             TOTAL OUT =         118.2981

            IN - OUT =         -51.1725              IN - OUT =      -5.4991E-07

 PERCENT DISCREPANCY =          -0.00     PERCENT DISCREPANCY =          -0.00




         TIME SUMMARY AT END OF TIME STEP   20 IN STRESS PERIOD    1
                    SECONDS     MINUTES      HOURS       DAYS        YEARS
                    -----------------------------------------------------------
   TIME STEP LENGTH 8.29118E+06 1.38186E+05  2303.1      95.963     0.26273    
 STRESS PERIOD TIME 7.76462E+07 1.29410E+06  21568.      898.68      2.4605    
         TOTAL TIME 7.76462E+07 1.29410E+06  21568.      898.68      2.4605    
 UBDSV1 SAVING           STO-SS ON UNIT   1022 AT TIME STEP     25, STRESS PERIOD      1
 UBDSV1 SAVING           STO-SY ON UNIT   1022 AT TIME STEP     25, STRESS PERIOD      1
 UBDSV1 SAVING     FLOW-JA-FACE ON UNIT   1022 AT TIME STEP     25, STRESS PERIOD      1
 UBDSV06 SAVING              WEL IN MODEL GWF_1            PACKAGE GWF_1           CONNECTED TO MODEL GWF_1            PACKAGE WEL-1            ON UNIT   1022 AT TIME STEP     25, STRESS PERIOD      1
 UBDSV06 SAVING              GHB IN MODEL GWF_1            PACKAGE GWF_1           CONNECTED TO MODEL GWF_1            PACKAGE GHB-1            ON UNIT   1022 AT TIME STEP     25, STRESS PERIOD      1
 UBDSV06 SAVING              RCH IN MODEL GWF_1            PACKAGE GWF_1           CONNECTED TO MODEL GWF_1            PACKAGE RCH-1            ON UNIT   1022 AT TIME STEP     25, STRESS PERIOD      1
 UBDSV06 SAVING              EVT IN MODEL GWF_1            PACKAGE GWF_1           CONNECTED TO MODEL GWF_1            PACKAGE EVT-1            ON UNIT   1022 AT TIME STEP     25, STRESS PERIOD      1
 UBDSV06 SAVING              SFR IN MODEL GWF_1            PACKAGE GWF_1           CONNECTED TO MODEL GWF_1            PACKAGE SFR-1            ON UNIT   1022 AT TIME STEP     25, STRESS PERIOD      1

              SFR (SFR-1)   PERIOD 1   STEP 25
 BOUNDARY        1  CELL              (1,1,1)   RATE     1.20899    
 BOUNDARY        2  CELL              (1,2,2)   RATE     3.48462    
 BOUNDARY        3  CELL              (1,3,3)   RATE     2.91260    
 BOUNDARY        4  CELL              (1,3,4)   RATE     2.63080    
 BOUNDARY        5  CELL              (1,4,5)   RATE     2.74051    
 BOUNDARY        6  CELL              (1,5,6)   RATE     2.02753    
 BOUNDARY        7  CELL              (1,6,6)   RATE     1.94146    
 BOUNDARY        8  CELL              (1,7,6)   RATE    0.671992    
 BOUNDARY        9  CELL              (1,8,6)   RATE     0.00000    
 BOUNDARY       10  CELL              (1,3,5)   RATE     2.02427    
 BOUNDARY       11  CELL              (1,3,6)   RATE     1.91977    
 BOUNDARY       12  CELL              (1,3,7)   RATE     1.62714    
 BOUNDARY       13  CELL              (1,4,8)   RATE     1.81032    
 BOUNDARY       14  CELL              (1,5,8)   RATE     0.00000    
 BOUNDARY       15  CELL              (1,6,8)   RATE     0.00000    
 BOUNDARY       16  CELL             (1,5,10)   RATE    0.905253    
 BOUNDARY       17  CELL              (1,5,9)   RATE     1.78348    
 BOUNDARY       18  CELL              (1,6,8)   RATE     1.22572    
 BOUNDARY       19  CELL              (1,6,8)   RATE     2.03898    
 BOUNDARY       20  CELL              (1,7,7)   RATE     2.46004    
 BOUNDARY       21  CELL              (1,8,7)   RATE     1.58653    
 BOUNDARY       22  CELL              (1,8,6)   RATE     0.00000    
 BOUNDARY       23  CELL              (1,9,6)   RATE     0.00000    
 BOUNDARY       24  CELL             (1,10,7)   RATE     0.00000    
 BOUNDARY       25  CELL             (1,11,7)   RATE     0.00000    
 BOUNDARY       26  CELL             (1,12,7)   RATE     0.00000    
 BOUNDARY       27  CELL             (1,13,7)   RATE   -0.317763    
 BOUNDARY       28  CELL             (1,14,9)   RATE     2.80754    
 BOUNDARY       29  CELL             (1,13,8)   RATE     4.74914    
 BOUNDARY       30  CELL             (1,13,7)   RATE     7.32784    
 BOUNDARY       31  CELL             (1,13,6)   RATE     6.49685    
 BOUNDARY       32  CELL             (1,13,5)   RATE     5.08664    
 BOUNDARY       33  CELL             (1,13,4)   RATE     2.73142    
 BOUNDARY       34  CELL             (1,13,3)   RATE    0.324873    
 BOUNDARY       35  CELL             (1,13,2)   RATE   -0.482275    
 BOUNDARY       36  CELL             (1,13,1)   RATE    0.310611    

 UBDSV06 SAVING     FLOW-JA-FACE IN MODEL GWF_1            PACKAGE SFR-1           CONNECTED TO MODEL GWF_1            PACKAGE SFR-1            ON UNIT   1019 AT TIME STEP     25, STRESS PERIOD      1
 UBDSV06 SAVING              GWF IN MODEL GWF_1            PACKAGE SFR-1           CONNECTED TO MODEL GWF_1            PACKAGE GWF_1            ON UNIT   1019 AT TIME STEP     25, STRESS PERIOD      1
 UBDSV06 SAVING       EXT-INFLOW IN MODEL GWF_1            PACKAGE SFR-1           CONNECTED TO MODEL GWF_1            PACKAGE SFR-1            ON UNIT   1019 AT TIME STEP     25, STRESS PERIOD      1
 UBDSV06 SAVING         RAINFALL IN MODEL GWF_1            PACKAGE SFR-1           CONNECTED TO MODEL GWF_1            PACKAGE SFR-1            ON UNIT   1019 AT TIME STEP     25, STRESS PERIOD      1
 UBDSV06 SAVING           RUNOFF IN MODEL GWF_1            PACKAGE SFR-1           CONNECTED TO MODEL GWF_1            PACKAGE SFR-1            ON UNIT   1019 AT TIME STEP     25, STRESS PERIOD      1
 UBDSV06 SAVING      EVAPORATION IN MODEL GWF_1            PACKAGE SFR-1           CONNECTED TO MODEL GWF_1            PACKAGE SFR-1            ON UNIT   1019 AT TIME STEP     25, STRESS PERIOD      1
 UBDSV06 SAVING      EXT-OUTFLOW IN MODEL GWF_1            PACKAGE SFR-1           CONNECTED TO MODEL GWF_1            PACKAGE SFR-1            ON UNIT   1019 AT TIME STEP     25, STRESS PERIOD      1
1
  HEAD IN LAYER   1 AT END OF TIME STEP  25 IN STRESS PERIOD    1
  ---------------------------------------------------------------------------

            1           2           3           4           5           6           7           8           9          10
 ........................................................................................................................
   1    1092.       1086.      1.0000E+30  1.0000E+30  1.0000E+30  1.0000E+30  1.0000E+30  1.0000E+30  1.0000E+30  1.0000E+30
   2    1087.       1081.       1070.      1.0000E+30  1.0000E+30   1062.       1065.       1066.      1.0000E+30  1.0000E+30
   3   1.0000E+30   1068.       1061.       1053.       1052.       1055.       1060.       1061.      1.0000E+30  1.0000E+30
   4    1056.       1054.       1049.       1041.       1039.       1039.       1045.       1054.       1055.      1.0000E+30
   5    1050.       1043.       1035.       1028.       1029.       1033.       1036.       1042.       1050.       1056.    
   6    1042.       1032.       1021.       1012.       1015.       1024.       1031.       1037.       1046.       1055.    
   7    1036.       1023.       1011.       1001.       1005.       1016.       1025.       1032.       1040.      1.0000E+30
   8   1.0000E+30   1014.       1003.       993.8       998.5       1009.       1017.       1026.       1035.      1.0000E+30
   9   1.0000E+30   1008.       999.1       990.9       995.7       1006.       1012.       1021.       1031.      1.0000E+30
  10   1.0000E+30   1006.       999.6       993.4       997.5       1006.       1011.       1019.       1028.       1036.    
  11   1.0000E+30   1005.       1003.       1002.       1005.       1010.       1014.       1020.       1027.      1.0000E+30
  12    997.6       1002.       1005.       1007.       1011.       1015.       1019.       1025.       1030.      1.0000E+30
  13    993.0       998.2       1004.       1010.       1016.       1022.       1027.       1033.       1035.      1.0000E+30
  14   1.0000E+30   1002.       1007.       1011.       1016.       1022.       1028.       1034.       1038.      1.0000E+30
  15   1.0000E+30  1.0000E+30   1011.       1014.       1018.       1021.      1.0000E+30  1.0000E+30  1.0000E+30  1.0000E+30

 HEAD WILL BE SAVED ON UNIT 1021 AT END OF TIME STEP   25, STRESS PERIOD    1



 SFR (SFR-1) FLOWS   PERIOD      1   STEP       25
 ----------------------------------------------------------------------------------------------------------------------------------------------------
 REACH  REACH                 EXTERNAL      REACH       REACH       REACH       REACH       REACH       REACH     EXTERNAL      REACH      PERCENT   
  NO.   (LAYER,ROW,COLUMN)     INFLOW      INFLOW     RAINFALL     RUNOFF      LEAKAGE   EVAPORATION   OUTFLOW     OUTFLOW    IN - OUT   DIFFERENCE  
 ----------------------------------------------------------------------------------------------------------------------------------------------------
      1 (1,1,1)                25.00       0.000       0.000       0.000      -1.209       0.000      -23.79       0.000       0.000       0.000     
      2 (1,2,2)                0.000       23.79       0.000       0.000      -3.485       0.000      -20.31       0.000      0.3553E-14  0.1493E-13 
      3 (1,3,3)                0.000       20.31       0.000       0.000      -2.913       0.000      -17.39       0.000       0.000       0.000     
      4 (1,3,4)                0.000       17.39       0.000       0.000      -2.631       0.000      -14.76       0.000       0.000       0.000     
      5 (1,4,5)                0.000       7.381       0.000       0.000      -2.741       0.000      -4.641       0.000     -0.8882E-15 -0.1203E-13 
      6 (1,5,6)                0.000       4.641       0.000       0.000      -2.028       0.000      -2.613       0.000       0.000       0.000     
      7 (1,6,6)                0.000       2.613       0.000       0.000      -1.941       0.000     -0.6720       0.000       0.000       0.000     
      8 (1,7,6)                0.000      0.6720       0.000       0.000     -0.6720       0.000       0.000       0.000       0.000       0.000     
      9 (1,8,6)                0.000       0.000       0.000       0.000       0.000       0.000       0.000       0.000       0.000       0.000     
     10 (1,3,5)                0.000       7.381       0.000       0.000      -2.024       0.000      -5.357       0.000       0.000       0.000     
     11 (1,3,6)                0.000       5.357       0.000       0.000      -1.920       0.000      -3.437       0.000       0.000       0.000     
     12 (1,3,7)                0.000       3.437       0.000       0.000      -1.627       0.000      -1.810       0.000       0.000       0.000     
     13 (1,4,8)                0.000       1.810       0.000       0.000      -1.810       0.000       0.000       0.000       0.000       0.000     
     14 (1,5,8)                0.000       0.000       0.000       0.000       0.000       0.000       0.000       0.000       0.000       0.000     
     15 (1,6,8)                0.000       0.000       0.000       0.000       0.000       0.000       0.000       0.000       0.000       0.000     
     16 (1,5,10)               10.00       0.000       0.000       0.000     -0.9053       0.000      -9.095       0.000       0.000       0.000     
     17 (1,5,9)                0.000       9.095       0.000       0.000      -1.783       0.000      -7.311       0.000       0.000       0.000     
     18 (1,6,8)                0.000       7.311       0.000       0.000      -1.226       0.000      -6.086       0.000       0.000       0.000     
     19 (1,6,8)                0.000       6.086       0.000       0.000      -2.039       0.000      -4.047       0.000       0.000       0.000     
     20 (1,7,7)                0.000       4.047       0.000       0.000      -2.460       0.000      -1.587       0.000       0.000       0.000     
     21 (1,8,7)                0.000       1.587       0.000       0.000      -1.587       0.000       0.000       0.000       0.000       0.000     
     22 (1,8,6)                0.000       0.000       0.000       0.000       0.000       0.000       0.000       0.000       0.000       0.000     
     23 (1,9,6)                0.000       0.000       0.000       0.000       0.000       0.000       0.000       0.000       0.000       0.000     
     24 (1,10,7)               0.000       0.000       0.000       0.000       0.000       0.000       0.000       0.000       0.000       0.000     
     25 (1,11,7)               0.000       0.000       0.000       0.000       0.000       0.000       0.000       0.000       0.000       0.000     
     26 (1,12,7)               0.000       0.000       0.000       0.000       0.000       0.000       0.000       0.000       0.000       0.000     
     27 (1,13,7)               0.000       0.000       0.000       0.000      0.3178       0.000     -0.3178       0.000       0.000       0.000     
     28 (1,14,9)               150.0       0.000       0.000       0.000      -2.808       0.000      -147.2       0.000       0.000       0.000     
     29 (1,13,8)               0.000       147.2       0.000       0.000      -4.749       0.000      -142.4       0.000       0.000       0.000     
     30 (1,13,7)               0.000       142.4       0.000       0.000      -7.328       0.000      -135.1       0.000       0.000       0.000     
     31 (1,13,6)               0.000       135.4       0.000       0.000      -6.497       0.000      -128.9       0.000       0.000       0.000     
     32 (1,13,5)               0.000       128.9       0.000       0.000      -5.087       0.000      -123.8       0.000       0.000       0.000     
     33 (1,13,4)               0.000       123.8       0.000       0.000      -2.731       0.000      -121.1       0.000       0.000       0.000     
     34 (1,13,3)               0.000       121.1       0.000       0.000     -0.3249       0.000      -120.8       0.000       0.000       0.000     
     35 (1,13,2)               0.000       120.8       0.000       0.000      0.4823       0.000      -121.3       0.000       0.000       0.000     
     36 (1,13,1)               0.000       121.3       0.000       0.000     -0.3106       0.000       0.000      -121.0       0.000       0.000     


  SFR-1 BUDGET FOR ENTIRE MODEL AT END OF TIME STEP   25, STRESS PERIOD   1
  ------------------------------------------------------------------------------

     CUMULATIVE SFR-1      L**3       RATES FOR THIS TIME STEP      L**3/T
     ------------------                 ------------------------

           IN:                                      IN:
           ---                                      ---
          EXT-INFLOW = 24665403719.9021            EXT-INFLOW =         185.0000
            RAINFALL =           0.0000              RAINFALL =           0.0000
              RUNOFF =           0.0000                RUNOFF =           0.0000
                 GWF =   505383476.6059                   GWF =           0.8000
         EVAPORATION =           0.0000           EVAPORATION =           0.0000
         EXT-OUTFLOW =           0.0000           EXT-OUTFLOW =           0.0000

            TOTAL IN = 25170787196.5080              TOTAL IN =         185.8000

          OUT:                                     OUT:
          ----                                     ----
          EXT-INFLOW =           0.0000            EXT-INFLOW =           0.0000
            RAINFALL =           0.0000              RAINFALL =           0.0000
              RUNOFF =           0.0000                RUNOFF =           0.0000
                 GWF =  7363614566.4724                   GWF =          64.8349
         EVAPORATION =           0.0000           EVAPORATION =           0.0000
         EXT-OUTFLOW = 17807172630.0356           EXT-OUTFLOW =         120.9651

           TOTAL OUT = 25170787196.5080             TOTAL OUT =         185.8000

            IN - OUT =       3.8147E-06              IN - OUT =           0.0000

 PERCENT DISCREPANCY =           0.00     PERCENT DISCREPANCY =           0.00



  VOLUME BUDGET FOR ENTIRE MODEL AT END OF TIME STEP   25, STRESS PERIOD   1
  ---------------------------------------------------------------------------------------------------

     CUMULATIVE VOLUME      L**3       RATES FOR THIS TIME STEP      L**3/T          PACKAGE NAME    
     ------------------                 ------------------------                     ----------------

           IN:                                      IN:
           ---                                      ---
              STO-SS =    73097832.6650                STO-SS =           0.4283     STORAGE         
              STO-SY =  8510990645.4226                STO-SY =          48.6629     STORAGE         
                 WEL =           0.0000                   WEL =           0.0000     WEL-1           
                 GHB =    33694363.0853                   GHB =           0.2536     GHB-1           
                 RCH =   239154421.2031                   RCH =           1.7938     RCH-1           
                 EVT =           0.0000                   EVT =           0.0000     EVT-1           
                 SFR =  7363614763.3599                   SFR =          64.8349     SFR-1           

            TOTAL IN = 16220552025.7360              TOTAL IN =         115.9734

          OUT:                                     OUT:
          ----                                     ----
              STO-SS =        3478.4097                STO-SS =           0.0000     STORAGE         
              STO-SY =      406734.8032                STO-SY =           0.0000     STORAGE         
                 WEL = 13332650659.4066                   WEL =         100.0000     WEL-1           
                 GHB =    25959626.1579                   GHB =           0.1896     GHB-1           
                 RCH =           0.0000                   RCH =           0.0000     RCH-1           
                 EVT =  2356148366.7763                   EVT =          14.9838     EVT-1           
                 SFR =   505383232.2813                   SFR =           0.8000     SFR-1           

           TOTAL OUT = 16220552097.8350             TOTAL OUT =         115.9735

            IN - OUT =         -72.0990              IN - OUT =      -5.1925E-07

 PERCENT DISCREPANCY =          -0.00     PERCENT DISCREPANCY =          -0.00




         TIME SUMMARY AT END OF TIME STEP   25 IN STRESS PERIOD    1
                    SECONDS     MINUTES      HOURS       DAYS        YEARS
                    -----------------------------------------------------------
   TIME STEP LENGTH 1.33530E+07 2.22550E+05  3709.2      154.55     0.42313    
 STRESS PERIOD TIME 1.33327E+08 2.22211E+06  37035.      1543.1      4.2249    
         TOTAL TIME 1.33327E+08 2.22211E+06  37035.      1543.1      4.2249    
 UBDSV1 SAVING           STO-SS ON UNIT   1022 AT TIME STEP     30, STRESS PERIOD      1
 UBDSV1 SAVING           STO-SY ON UNIT   1022 AT TIME STEP     30, STRESS PERIOD      1
 UBDSV1 SAVING     FLOW-JA-FACE ON UNIT   1022 AT TIME STEP     30, STRESS PERIOD      1
 UBDSV06 SAVING              WEL IN MODEL GWF_1            PACKAGE GWF_1           CONNECTED TO MODEL GWF_1            PACKAGE WEL-1            ON UNIT   1022 AT TIME STEP     30, STRESS PERIOD      1
 UBDSV06 SAVING              GHB IN MODEL GWF_1            PACKAGE GWF_1           CONNECTED TO MODEL GWF_1            PACKAGE GHB-1            ON UNIT   1022 AT TIME STEP     30, STRESS PERIOD      1
 UBDSV06 SAVING              RCH IN MODEL GWF_1            PACKAGE GWF_1           CONNECTED TO MODEL GWF_1            PACKAGE RCH-1            ON UNIT   1022 AT TIME STEP     30, STRESS PERIOD      1
 UBDSV06 SAVING              EVT IN MODEL GWF_1            PACKAGE GWF_1           CONNECTED TO MODEL GWF_1            PACKAGE EVT-1            ON UNIT   1022 AT TIME STEP     30, STRESS PERIOD      1
 UBDSV06 SAVING              SFR IN MODEL GWF_1            PACKAGE GWF_1           CONNECTED TO MODEL GWF_1            PACKAGE SFR-1            ON UNIT   1022 AT TIME STEP     30, STRESS PERIOD      1

              SFR (SFR-1)   PERIOD 1   STEP 30
 BOUNDARY        1  CELL              (1,1,1)   RATE     1.96235    
 BOUNDARY        2  CELL              (1,2,2)   RATE     3.46496    
 BOUNDARY        3  CELL              (1,3,3)   RATE     2.89510    
 BOUNDARY        4  CELL              (1,3,4)   RATE     2.61393    
 BOUNDARY        5  CELL              (1,4,5)   RATE     2.72665    
 BOUNDARY        6  CELL              (1,5,6)   RATE     2.01489    
 BOUNDARY        7  CELL              (1,6,6)   RATE     1.92451    
 BOUNDARY        8  CELL              (1,7,6)   RATE    0.365766    
 BOUNDARY        9  CELL              (1,8,6)   RATE     0.00000    
 BOUNDARY       10  CELL              (1,3,5)   RATE     2.00723    
 BOUNDARY       11  CELL              (1,3,6)   RATE     1.90097    
 BOUNDARY       12  CELL              (1,3,7)   RATE     1.60741    
 BOUNDARY       13  CELL              (1,4,8)   RATE     1.51621    
 BOUNDARY       14  CELL              (1,5,8)   RATE     0.00000    
 BOUNDARY       15  CELL              (1,6,8)   RATE     0.00000    
 BOUNDARY       16  CELL             (1,5,10)   RATE    0.905253    
 BOUNDARY       17  CELL              (1,5,9)   RATE     1.78348    
 BOUNDARY       18  CELL              (1,6,8)   RATE     1.22572    
 BOUNDARY       19  CELL              (1,6,8)   RATE     2.03898    
 BOUNDARY       20  CELL              (1,7,7)   RATE     2.46004    
 BOUNDARY       21  CELL              (1,8,7)   RATE     1.58653    
 BOUNDARY       22  CELL              (1,8,6)   RATE     0.00000    
 BOUNDARY       23  CELL              (1,9,6)   RATE     0.00000    
 BOUNDARY       24  CELL             (1,10,7)   RATE     0.00000    
 BOUNDARY       25  CELL             (1,11,7)   RATE     0.00000    
 BOUNDARY       26  CELL             (1,12,7)   RATE     0.00000    
 BOUNDARY       27  CELL             (1,13,7)   RATE   -0.252888    
 BOUNDARY       28  CELL             (1,14,9)   RATE     2.90611    
 BOUNDARY       29  CELL             (1,13,8)   RATE     5.24244    
 BOUNDARY       30  CELL             (1,13,7)   RATE     8.81750    
 BOUNDARY       31  CELL             (1,13,6)   RATE     8.27266    
 BOUNDARY       32  CELL             (1,13,5)   RATE     7.07693    
 BOUNDARY       33  CELL             (1,13,4)   RATE     4.43673    
 BOUNDARY       34  CELL             (1,13,3)   RATE     1.44144    
 BOUNDARY       35  CELL             (1,13,2)   RATE   -0.159495    
 BOUNDARY       36  CELL             (1,13,1)   RATE    0.385789    

 UBDSV06 SAVING     FLOW-JA-FACE IN MODEL GWF_1            PACKAGE SFR-1           CONNECTED TO MODEL GWF_1            PACKAGE SFR-1            ON UNIT   1019 AT TIME STEP     30, STRESS PERIOD      1
 UBDSV06 SAVING              GWF IN MODEL GWF_1            PACKAGE SFR-1           CONNECTED TO MODEL GWF_1            PACKAGE GWF_1            ON UNIT   1019 AT TIME STEP     30, STRESS PERIOD      1
 UBDSV06 SAVING       EXT-INFLOW IN MODEL GWF_1            PACKAGE SFR-1           CONNECTED TO MODEL GWF_1            PACKAGE SFR-1            ON UNIT   1019 AT TIME STEP     30, STRESS PERIOD      1
 UBDSV06 SAVING         RAINFALL IN MODEL GWF_1            PACKAGE SFR-1           CONNECTED TO MODEL GWF_1            PACKAGE SFR-1            ON UNIT   1019 AT TIME STEP     30, STRESS PERIOD      1
 UBDSV06 SAVING           RUNOFF IN MODEL GWF_1            PACKAGE SFR-1           CONNECTED TO MODEL GWF_1            PACKAGE SFR-1            ON UNIT   1019 AT TIME STEP     30, STRESS PERIOD      1
 UBDSV06 SAVING      EVAPORATION IN MODEL GWF_1            PACKAGE SFR-1           CONNECTED TO MODEL GWF_1            PACKAGE SFR-1            ON UNIT   1019 AT TIME STEP     30, STRESS PERIOD      1
 UBDSV06 SAVING      EXT-OUTFLOW IN MODEL GWF_1            PACKAGE SFR-1           CONNECTED TO MODEL GWF_1            PACKAGE SFR-1            ON UNIT   1019 AT TIME STEP     30, STRESS PERIOD      1
1
  HEAD IN LAYER   1 AT END OF TIME STEP  30 IN STRESS PERIOD    1
  ---------------------------------------------------------------------------

            1           2           3           4           5           6           7           8           9          10
 ........................................................................................................................
   1    1091.       1081.      1.0000E+30  1.0000E+30  1.0000E+30  1.0000E+30  1.0000E+30  1.0000E+30  1.0000E+30  1.0000E+30
   2    1083.       1073.       1060.      1.0000E+30  1.0000E+30   1051.       1054.       1056.      1.0000E+30  1.0000E+30
   3   1.0000E+30   1057.       1049.       1040.       1038.       1042.       1047.       1049.      1.0000E+30  1.0000E+30
   4    1043.       1041.       1036.       1028.       1025.       1025.       1031.       1040.       1041.      1.0000E+30
   5    1036.       1029.       1021.       1014.       1015.       1019.       1022.       1028.       1036.       1043.    
   6    1027.       1017.       1007.       998.2       1001.       1011.       1017.       1023.       1032.       1042.    
   7    1021.       1008.       996.6       987.5       991.8       1003.       1012.       1018.       1026.      1.0000E+30
   8   1.0000E+30   999.3       989.7       981.0       986.0       997.1       1005.       1013.       1023.      1.0000E+30
   9   1.0000E+30   995.2       987.5       979.8       984.9       995.1       1001.       1010.       1020.      1.0000E+30
  10   1.0000E+30   995.7       990.5       984.7       988.9       997.5       1003.       1010.       1020.       1028.    
  11   1.0000E+30   998.7       997.9       996.3       999.1       1004.       1008.       1015.       1021.      1.0000E+30
  12    996.4       999.8       1003.       1004.       1007.       1012.       1016.       1023.       1028.      1.0000E+30
  13    992.9       998.1       1004.       1009.       1015.       1021.       1027.       1033.       1035.      1.0000E+30
  14   1.0000E+30   1002.       1006.       1011.       1016.       1021.       1027.       1034.       1038.      1.0000E+30
  15   1.0000E+30  1.0000E+30   1010.       1013.       1017.       1020.      1.0000E+30  1.0000E+30  1.0000E+30  1.0000E+30

 HEAD WILL BE SAVED ON UNIT 1021 AT END OF TIME STEP   30, STRESS PERIOD    1



 SFR (SFR-1) FLOWS   PERIOD      1   STEP       30
 ----------------------------------------------------------------------------------------------------------------------------------------------------
 REACH  REACH                 EXTERNAL      REACH       REACH       REACH       REACH       REACH       REACH     EXTERNAL      REACH      PERCENT   
  NO.   (LAYER,ROW,COLUMN)     INFLOW      INFLOW     RAINFALL     RUNOFF      LEAKAGE   EVAPORATION   OUTFLOW     OUTFLOW    IN - OUT   DIFFERENCE  
 ----------------------------------------------------------------------------------------------------------------------------------------------------
      1 (1,1,1)                25.00       0.000       0.000       0.000      -1.962       0.000      -23.04       0.000       0.000       0.000     
      2 (1,2,2)                0.000       23.04       0.000       0.000      -3.465       0.000      -19.57       0.000       0.000       0.000     
      3 (1,3,3)                0.000       19.57       0.000       0.000      -2.895       0.000      -16.68       0.000       0.000       0.000     
      4 (1,3,4)                0.000       16.68       0.000       0.000      -2.614       0.000      -14.06       0.000       0.000       0.000     
      5 (1,4,5)                0.000       7.032       0.000       0.000      -2.727       0.000      -4.305       0.000       0.000       0.000     
      6 (1,5,6)                0.000       4.305       0.000       0.000      -2.015       0.000      -2.290       0.000       0.000       0.000     
      7 (1,6,6)                0.000       2.290       0.000       0.000      -1.925       0.000     -0.3658       0.000       0.000       0.000     
      8 (1,7,6)                0.000      0.3658       0.000       0.000     -0.3658       0.000       0.000       0.000       0.000       0.000     
      9 (1,8,6)                0.000       0.000       0.000       0.000       0.000       0.000       0.000       0.000       0.000       0.000     
     10 (1,3,5)                0.000       7.032       0.000       0.000      -2.007       0.000      -5.025       0.000       0.000       0.000     
     11 (1,3,6)                0.000       5.025       0.000       0.000      -1.901       0.000      -3.124       0.000       0.000       0.000     
     12 (1,3,7)                0.000       3.124       0.000       0.000      -1.607       0.000      -1.516       0.000       0.000       0.000     
     13 (1,4,8)                0.000       1.516       0.000       0.000      -1.516       0.000       0.000       0.000       0.000       0.000     
     14 (1,5,8)                0.000       0.000       0.000       0.000       0.000       0.000       0.000       0.000       0.000       0.000     
     15 (1,6,8)                0.000       0.000       0.000       0.000       0.000       0.000       0.000       0.000       0.000       0.000     
     16 (1,5,10)               10.00       0.000       0.000       0.000     -0.9053       0.000      -9.095       0.000       0.000       0.000     
     17 (1,5,9)                0.000       9.095       0.000       0.000      -1.783       0.000      -7.311       0.000       0.000       0.000     
     18 (1,6,8)                0.000       7.311       0.000       0.000      -1.226       0.000      -6.086       0.000       0.000       0.000     
     19 (1,6,8)                0.000       6.086       0.000       0.000      -2.039       0.000      -4.047       0.000       0.000       0.000     
     20 (1,7,7)                0.000       4.047       0.000       0.000      -2.460       0.000      -1.587       0.000       0.000       0.000     
     21 (1,8,7)                0.000       1.587       0.000       0.000      -1.587       0.000       0.000       0.000       0.000       0.000     
     22 (1,8,6)                0.000       0.000       0.000       0.000       0.000       0.000       0.000       0.000       0.000       0.000     
     23 (1,9,6)                0.000       0.000       0.000       0.000       0.000       0.000       0.000       0.000       0.000       0.000     
     24 (1,10,7)               0.000       0.000       0.000       0.000       0.000       0.000       0.000       0.000       0.000       0.000     
     25 (1,11,7)               0.000       0.000       0.000       0.000       0.000       0.000       0.000       0.000       0.000       0.000     
     26 (1,12,7)               0.000       0.000       0.000       0.000       0.000       0.000       0.000       0.000       0.000       0.000     
     27 (1,13,7)               0.000       0.000       0.000       0.000      0.2529       0.000     -0.2529       0.000       0.000       0.000     
     28 (1,14,9)               150.0       0.000       0.000       0.000      -2.906       0.000      -147.1       0.000       0.000       0.000     
     29 (1,13,8)               0.000       147.1       0.000       0.000      -5.242       0.000      -141.9       0.000       0.000       0.000     
     30 (1,13,7)               0.000       141.9       0.000       0.000      -8.818       0.000      -133.0       0.000       0.000       0.000     
     31 (1,13,6)               0.000       133.3       0.000       0.000      -8.273       0.000      -125.0       0.000       0.000       0.000     
     32 (1,13,5)               0.000       125.0       0.000       0.000      -7.077       0.000      -117.9       0.000       0.000       0.000     
     33 (1,13,4)               0.000       117.9       0.000       0.000      -4.437       0.000      -113.5       0.000       0.000       0.000     
     34 (1,13,3)               0.000       113.5       0.000       0.000      -1.441       0.000      -112.1       0.000       0.000       0.000     
     35 (1,13,2)               0.000       112.1       0.000       0.000      0.1595       0.000      -112.2       0.000       0.000       0.000     
     36 (1,13,1)               0.000       112.2       0.000       0.000     -0.3858       0.000       0.000      -111.8       0.000       0.000     


  SFR-1 BUDGET FOR ENTIRE MODEL AT END OF TIME STEP   30, STRESS PERIOD   1
  ------------------------------------------------------------------------------

     CUMULATIVE SFR-1      L**3       RATES FOR THIS TIME STEP      L**3/T
     ------------------                 ------------------------

           IN:                                      IN:
           ---                                      ---
          EXT-INFLOW = 41255036017.2101            EXT-INFLOW =         185.0000
            RAINFALL =           0.0000              RAINFALL =           0.0000
              RUNOFF =           0.0000                RUNOFF =           0.0000
                 GWF =   554874776.1976                   GWF =           0.4124
         EVAPORATION =           0.0000           EVAPORATION =           0.0000
         EXT-OUTFLOW =           0.0000           EXT-OUTFLOW =           0.0000

            TOTAL IN = 41809910793.4077              TOTAL IN =         185.4124

          OUT:                                     OUT:
          ----                                     ----
          EXT-INFLOW =           0.0000            EXT-INFLOW =           0.0000
            RAINFALL =           0.0000              RAINFALL =           0.0000
              RUNOFF =           0.0000                RUNOFF =           0.0000
                 GWF = 13672140786.0615                   GWF =          73.5796
         EVAPORATION =           0.0000           EVAPORATION =           0.0000
         EXT-OUTFLOW = 28137770007.3463           EXT-OUTFLOW =         111.8328

           TOTAL OUT = 41809910793.4077             TOTAL OUT =         185.4124

            IN - OUT =           0.0000              IN - OUT =           0.0000

 PERCENT DISCREPANCY =           0.00     PERCENT DISCREPANCY =           0.00



  VOLUME BUDGET FOR ENTIRE MODEL AT END OF TIME STEP   30, STRESS PERIOD   1
  ---------------------------------------------------------------------------------------------------

     CUMULATIVE VOLUME      L**3       RATES FOR THIS TIME STEP      L**3/T          PACKAGE NAME    
     ------------------                 ------------------------                     ----------------

           IN:                                      IN:
           ---                                      ---
              STO-SS =   106418463.5083                STO-SS =           0.3389     STORAGE         
              STO-SY = 12313682015.6784                STO-SY =          38.8558     STORAGE         
                 WEL =           0.0000                   WEL =           0.0000     WEL-1           
                 GHB =    56474710.2088                   GHB =           0.2543     GHB-1           
                 RCH =   400006599.2209                   RCH =           1.7938     RCH-1           
                 EVT =           0.0000                   EVT =           0.0000     EVT-1           
                 SFR = 13672140993.1028                   SFR =          73.5796     SFR-1           

            TOTAL IN = 26548722781.7192              TOTAL IN =         114.8224

          OUT:                                     OUT:
          ----                                     ----
              STO-SS =        3478.4097                STO-SS =           0.0000     STORAGE         
              STO-SY =      406734.8032                STO-SY =           0.0000     STORAGE         
                 WEL = 22300019468.7622                   WEL =         100.0000     WEL-1           
                 GHB =    42774124.0039                   GHB =           0.1863     GHB-1           
                 RCH =           0.0000                   RCH =           0.0000     RCH-1           
                 EVT =  3650644518.2169                   EVT =          14.2237     EVT-1           
                 SFR =   554874526.3784                   SFR =           0.4124     SFR-1           

           TOTAL OUT = 26548722850.5743             TOTAL OUT =         114.8224

            IN - OUT =         -68.8550              IN - OUT =       1.4371E-07

 PERCENT DISCREPANCY =          -0.00     PERCENT DISCREPANCY =           0.00




         TIME SUMMARY AT END OF TIME STEP   30 IN STRESS PERIOD    1
                    SECONDS     MINUTES      HOURS       DAYS        YEARS
                    -----------------------------------------------------------
   TIME STEP LENGTH 2.15052E+07 3.58420E+05  5973.7      248.90     0.68146    
 STRESS PERIOD TIME 2.23000E+08 3.71667E+06  61944.      2581.0      7.0664    
         TOTAL TIME 2.23000E+08 3.71667E+06  61944.      2581.0      7.0664    
 UBDSV1 SAVING           STO-SS ON UNIT   1022 AT TIME STEP     35, STRESS PERIOD      1
 UBDSV1 SAVING           STO-SY ON UNIT   1022 AT TIME STEP     35, STRESS PERIOD      1
 UBDSV1 SAVING     FLOW-JA-FACE ON UNIT   1022 AT TIME STEP     35, STRESS PERIOD      1
 UBDSV06 SAVING              WEL IN MODEL GWF_1            PACKAGE GWF_1           CONNECTED TO MODEL GWF_1            PACKAGE WEL-1            ON UNIT   1022 AT TIME STEP     35, STRESS PERIOD      1
 UBDSV06 SAVING              GHB IN MODEL GWF_1            PACKAGE GWF_1           CONNECTED TO MODEL GWF_1            PACKAGE GHB-1            ON UNIT   1022 AT TIME STEP     35, STRESS PERIOD      1
 UBDSV06 SAVING              RCH IN MODEL GWF_1            PACKAGE GWF_1           CONNECTED TO MODEL GWF_1            PACKAGE RCH-1            ON UNIT   1022 AT TIME STEP     35, STRESS PERIOD      1
 UBDSV06 SAVING              EVT IN MODEL GWF_1            PACKAGE GWF_1           CONNECTED TO MODEL GWF_1            PACKAGE EVT-1            ON UNIT   1022 AT TIME STEP     35, STRESS PERIOD      1
 UBDSV06 SAVING              SFR IN MODEL GWF_1            PACKAGE GWF_1           CONNECTED TO MODEL GWF_1            PACKAGE SFR-1            ON UNIT   1022 AT TIME STEP     35, STRESS PERIOD      1

              SFR (SFR-1)   PERIOD 1   STEP 35
 BOUNDARY        1  CELL              (1,1,1)   RATE     2.27027    
 BOUNDARY        2  CELL              (1,2,2)   RATE     3.45685    
 BOUNDARY        3  CELL              (1,3,3)   RATE     2.88787    
 BOUNDARY        4  CELL              (1,3,4)   RATE     2.60696    
 BOUNDARY        5  CELL              (1,4,5)   RATE     2.72090    
 BOUNDARY        6  CELL              (1,5,6)   RATE     2.00960    
 BOUNDARY        7  CELL              (1,6,6)   RATE     1.91716    
 BOUNDARY        8  CELL              (1,7,6)   RATE    0.241369    
 BOUNDARY        9  CELL              (1,8,6)   RATE     0.00000    
 BOUNDARY       10  CELL              (1,3,5)   RATE     2.00017    
 BOUNDARY       11  CELL              (1,3,6)   RATE     1.89314    
 BOUNDARY       12  CELL              (1,3,7)   RATE     1.59908    
 BOUNDARY       13  CELL              (1,4,8)   RATE     1.39664    
 BOUNDARY       14  CELL              (1,5,8)   RATE     0.00000    
 BOUNDARY       15  CELL              (1,6,8)   RATE     0.00000    
 BOUNDARY       16  CELL             (1,5,10)   RATE    0.905253    
 BOUNDARY       17  CELL              (1,5,9)   RATE     1.78348    
 BOUNDARY       18  CELL              (1,6,8)   RATE     1.22572    
 BOUNDARY       19  CELL              (1,6,8)   RATE     2.03898    
 BOUNDARY       20  CELL              (1,7,7)   RATE     2.46004    
 BOUNDARY       21  CELL              (1,8,7)   RATE     1.58653    
 BOUNDARY       22  CELL              (1,8,6)   RATE     0.00000    
 BOUNDARY       23  CELL              (1,9,6)   RATE     0.00000    
 BOUNDARY       24  CELL             (1,10,7)   RATE     0.00000    
 BOUNDARY       25  CELL             (1,11,7)   RATE     0.00000    
 BOUNDARY       26  CELL             (1,12,7)   RATE     0.00000    
 BOUNDARY       27  CELL             (1,13,7)   RATE   -0.178595    
 BOUNDARY       28  CELL             (1,14,9)   RATE     3.02009    
 BOUNDARY       29  CELL             (1,13,8)   RATE     5.82762    
 BOUNDARY       30  CELL             (1,13,7)   RATE     10.5283    
 BOUNDARY       31  CELL             (1,13,6)   RATE     10.2110    
 BOUNDARY       32  CELL             (1,13,5)   RATE     9.20392    
 BOUNDARY       33  CELL             (1,13,4)   RATE     6.22648    
 BOUNDARY       34  CELL             (1,13,3)   RATE     2.58061    
 BOUNDARY       35  CELL             (1,13,2)   RATE    0.147493    
 BOUNDARY       36  CELL             (1,13,1)   RATE    0.450538    

 UBDSV06 SAVING     FLOW-JA-FACE IN MODEL GWF_1            PACKAGE SFR-1           CONNECTED TO MODEL GWF_1            PACKAGE SFR-1            ON UNIT   1019 AT TIME STEP     35, STRESS PERIOD      1
 UBDSV06 SAVING              GWF IN MODEL GWF_1            PACKAGE SFR-1           CONNECTED TO MODEL GWF_1            PACKAGE GWF_1            ON UNIT   1019 AT TIME STEP     35, STRESS PERIOD      1
 UBDSV06 SAVING       EXT-INFLOW IN MODEL GWF_1            PACKAGE SFR-1           CONNECTED TO MODEL GWF_1            PACKAGE SFR-1            ON UNIT   1019 AT TIME STEP     35, STRESS PERIOD      1
 UBDSV06 SAVING         RAINFALL IN MODEL GWF_1            PACKAGE SFR-1           CONNECTED TO MODEL GWF_1            PACKAGE SFR-1            ON UNIT   1019 AT TIME STEP     35, STRESS PERIOD      1
 UBDSV06 SAVING           RUNOFF IN MODEL GWF_1            PACKAGE SFR-1           CONNECTED TO MODEL GWF_1            PACKAGE SFR-1            ON UNIT   1019 AT TIME STEP     35, STRESS PERIOD      1
 UBDSV06 SAVING      EVAPORATION IN MODEL GWF_1            PACKAGE SFR-1           CONNECTED TO MODEL GWF_1            PACKAGE SFR-1            ON UNIT   1019 AT TIME STEP     35, STRESS PERIOD      1
 UBDSV06 SAVING      EXT-OUTFLOW IN MODEL GWF_1            PACKAGE SFR-1           CONNECTED TO MODEL GWF_1            PACKAGE SFR-1            ON UNIT   1019 AT TIME STEP     35, STRESS PERIOD      1
1
  HEAD IN LAYER   1 AT END OF TIME STEP  35 IN STRESS PERIOD    1
  ---------------------------------------------------------------------------

            1           2           3           4           5           6           7           8           9          10
 ........................................................................................................................
   1    1085.       1072.      1.0000E+30  1.0000E+30  1.0000E+30  1.0000E+30  1.0000E+30  1.0000E+30  1.0000E+30  1.0000E+30
   2    1074.       1060.       1045.      1.0000E+30  1.0000E+30   1034.       1037.       1038.      1.0000E+30  1.0000E+30
   3   1.0000E+30   1042.       1033.       1023.       1021.       1024.       1030.       1031.      1.0000E+30  1.0000E+30
   4    1026.       1024.       1019.       1010.       1008.       1008.       1014.       1022.       1023.      1.0000E+30
   5    1018.       1010.       1003.       997.1       997.6       1002.       1005.       1010.       1018.       1025.    
   6    1008.       999.1       989.2       981.0       984.1       993.8       1000.       1006.       1014.       1024.    
   7    1002.       990.4       979.7       971.2       975.7       987.0       995.8       1001.       1010.      1.0000E+30
   8   1.0000E+30   983.3       974.4       966.1       971.5       982.9       990.8       998.3       1007.      1.0000E+30
   9   1.0000E+30   981.8       974.7       967.4       972.7       983.1       989.6       997.2       1007.      1.0000E+30
  10   1.0000E+30   985.7       980.9       975.2       979.3       988.1       993.4       1001.       1010.       1018.    
  11   1.0000E+30   992.6       992.1       989.9       992.4       997.3       1001.       1008.       1015.      1.0000E+30
  12    995.3       997.6       1000.       1001.       1004.       1008.       1012.       1020.       1025.      1.0000E+30
  13    992.8       998.0       1004.       1009.       1015.       1021.       1027.       1033.       1034.      1.0000E+30
  14   1.0000E+30   1002.       1006.       1010.       1015.       1021.       1027.       1034.       1038.      1.0000E+30
  15   1.0000E+30  1.0000E+30   1009.       1012.       1016.       1019.      1.0000E+30  1.0000E+30  1.0000E+30  1.0000E+30

 HEAD WILL BE SAVED ON UNIT 1021 AT END OF TIME STEP   35, STRESS PERIOD    1



 SFR (SFR-1) FLOWS   PERIOD      1   STEP       35
 ----------------------------------------------------------------------------------------------------------------------------------------------------
 REACH  REACH                 EXTERNAL      REACH       REACH       REACH       REACH       REACH       REACH     EXTERNAL      REACH      PERCENT   
  NO.   (LAYER,ROW,COLUMN)     INFLOW      INFLOW     RAINFALL     RUNOFF      LEAKAGE   EVAPORATION   OUTFLOW     OUTFLOW    IN - OUT   DIFFERENCE  
 ----------------------------------------------------------------------------------------------------------------------------------------------------
      1 (1,1,1)                25.00       0.000       0.000       0.000      -2.270       0.000      -22.73       0.000       0.000       0.000     
      2 (1,2,2)                0.000       22.73       0.000       0.000      -3.457       0.000      -19.27       0.000       0.000       0.000     
      3 (1,3,3)                0.000       19.27       0.000       0.000      -2.888       0.000      -16.39       0.000       0.000       0.000     
      4 (1,3,4)                0.000       16.39       0.000       0.000      -2.607       0.000      -13.78       0.000       0.000       0.000     
      5 (1,4,5)                0.000       6.889       0.000       0.000      -2.721       0.000      -4.168       0.000       0.000       0.000     
      6 (1,5,6)                0.000       4.168       0.000       0.000      -2.010       0.000      -2.159       0.000       0.000       0.000     
      7 (1,6,6)                0.000       2.159       0.000       0.000      -1.917       0.000     -0.2414       0.000       0.000       0.000     
      8 (1,7,6)                0.000      0.2414       0.000       0.000     -0.2414       0.000       0.000       0.000       0.000       0.000     
      9 (1,8,6)                0.000       0.000       0.000       0.000       0.000       0.000       0.000       0.000       0.000       0.000     
     10 (1,3,5)                0.000       6.889       0.000       0.000      -2.000       0.000      -4.889       0.000       0.000       0.000     
     11 (1,3,6)                0.000       4.889       0.000       0.000      -1.893       0.000      -2.996       0.000       0.000       0.000     
     12 (1,3,7)                0.000       2.996       0.000       0.000      -1.599       0.000      -1.397       0.000       0.000       0.000     
     13 (1,4,8)                0.000       1.397       0.000       0.000      -1.397       0.000       0.000       0.000       0.000       0.000     
     14 (1,5,8)                0.000       0.000       0.000       0.000       0.000       0.000       0.000       0.000       0.000       0.000     
     15 (1,6,8)                0.000       0.000       0.000       0.000       0.000       0.000       0.000       0.000       0.000       0.000     
     16 (1,5,10)               10.00       0.000       0.000       0.000     -0.9053       0.000      -9.095       0.000       0.000       0.000     
     17 (1,5,9)                0.000       9.095       0.000       0.000      -1.783       0.000      -7.311       0.000       0.000       0.000     
     18 (1,6,8)                0.000       7.311       0.000       0.000      -1.226       0.000      -6.086       0.000       0.000       0.000     
     19 (1,6,8)                0.000       6.086       0.000       0.000      -2.039       0.000      -4.047       0.000       0.000       0.000     
     20 (1,7,7)                0.000       4.047       0.000       0.000      -2.460       0.000      -1.587       0.000       0.000       0.000     
     21 (1,8,7)                0.000       1.587       0.000       0.000      -1.587       0.000       0.000       0.000       0.000       0.000     
     22 (1,8,6)                0.000       0.000       0.000       0.000       0.000       0.000       0.000       0.000       0.000       0.000     
     23 (1,9,6)                0.000       0.000       0.000       0.000       0.000       0.000       0.000       0.000       0.000       0.000     
     24 (1,10,7)               0.000       0.000       0.000       0.000       0.000       0.000       0.000       0.000       0.000       0.000     
     25 (1,11,7)               0.000       0.000       0.000       0.000       0.000       0.000       0.000       0.000       0.000       0.000     
     26 (1,12,7)               0.000       0.000       0.000       0.000       0.000       0.000       0.000       0.000       0.000       0.000     
     27 (1,13,7)               0.000       0.000       0.000       0.000      0.1786       0.000     -0.1786       0.000       0.000       0.000     
     28 (1,14,9)               150.0       0.000       0.000       0.000      -3.020       0.000      -147.0       0.000       0.000       0.000     
     29 (1,13,8)               0.000       147.0       0.000       0.000      -5.828       0.000      -141.2       0.000       0.000       0.000     
     30 (1,13,7)               0.000       141.2       0.000       0.000      -10.53       0.000      -130.6       0.000       0.000       0.000     
     31 (1,13,6)               0.000       130.8       0.000       0.000      -10.21       0.000      -120.6       0.000       0.000       0.000     
     32 (1,13,5)               0.000       120.6       0.000       0.000      -9.204       0.000      -111.4       0.000       0.000       0.000     
     33 (1,13,4)               0.000       111.4       0.000       0.000      -6.226       0.000      -105.2       0.000       0.000       0.000     
     34 (1,13,3)               0.000       105.2       0.000       0.000      -2.581       0.000      -102.6       0.000       0.000       0.000     
     35 (1,13,2)               0.000       102.6       0.000       0.000     -0.1475       0.000      -102.4       0.000       0.000       0.000     
     36 (1,13,1)               0.000       102.4       0.000       0.000     -0.4505       0.000       0.000      -102.0       0.000       0.000     


  SFR-1 BUDGET FOR ENTIRE MODEL AT END OF TIME STEP   35, STRESS PERIOD   1
  ------------------------------------------------------------------------------

     CUMULATIVE SFR-1      L**3       RATES FOR THIS TIME STEP      L**3/T
     ------------------                 ------------------------

           IN:                                      IN:
           ---                                      ---
          EXT-INFLOW = 67972804728.3476            EXT-INFLOW =         185.0000
            RAINFALL =           0.0000              RAINFALL =           0.0000
              RUNOFF =           0.0000                RUNOFF =           0.0000
                 GWF =   587803214.6582                   GWF =           0.1786
         EVAPORATION =           0.0000           EVAPORATION =           0.0000
         EXT-OUTFLOW =           0.0000           EXT-OUTFLOW =           0.0000

            TOTAL IN = 68560607943.0058              TOTAL IN =         185.1786

          OUT:                                     OUT:
          ----                                     ----
          EXT-INFLOW =           0.0000            EXT-INFLOW =           0.0000
            RAINFALL =           0.0000              RAINFALL =           0.0000
              RUNOFF =           0.0000                RUNOFF =           0.0000
                 GWF = 25175820676.0455                   GWF =          83.1960
         EVAPORATION =           0.0000           EVAPORATION =           0.0000
         EXT-OUTFLOW = 43384787266.9603           EXT-OUTFLOW =         101.9826

           TOTAL OUT = 68560607943.0058             TOTAL OUT =         185.1786

            IN - OUT =       7.6294E-06              IN - OUT =           0.0000

 PERCENT DISCREPANCY =           0.00     PERCENT DISCREPANCY =           0.00



  VOLUME BUDGET FOR ENTIRE MODEL AT END OF TIME STEP   35, STRESS PERIOD   1
  ---------------------------------------------------------------------------------------------------

     CUMULATIVE VOLUME      L**3       RATES FOR THIS TIME STEP      L**3/T          PACKAGE NAME    
     ------------------                 ------------------------                     ----------------

           IN:                                      IN:
           ---                                      ---
              STO-SS =   146679505.7002                STO-SS =           0.2444     STORAGE         
              STO-SY = 16992202993.2832                STO-SY =          28.6879     STORAGE         
                 WEL =           0.0000                   WEL =           0.0000     WEL-1           
                 GHB =    93274458.1622                   GHB =           0.2551     GHB-1           
                 RCH =   659060640.4404                   RCH =           1.7938     RCH-1           
                 EVT =           0.0000                   EVT =           0.0000     EVT-1           
                 SFR = 25175820916.9344                   SFR =          83.1960     SFR-1           

            TOTAL IN = 43067038514.5203              TOTAL IN =         114.1771

          OUT:                                     OUT:
          ----                                     ----
              STO-SS =        3478.4097                STO-SS =           0.0000     STORAGE         
              STO-SY =      406734.8032                STO-SY =           0.0000     STORAGE         
                 WEL = 36742056609.9176                   WEL =         100.0000     WEL-1           
                 GHB =    69361171.2854                   GHB =           0.1828     GHB-1           
                 RCH =           0.0000                   RCH =           0.0000     RCH-1           
                 EVT =  5667407637.1742                   EVT =          13.8157     EVT-1           
                 SFR =   587802949.1731                   SFR =           0.1786     SFR-1           

           TOTAL OUT = 43067038580.7632             TOTAL OUT =         114.1771

            IN - OUT =         -66.2429              IN - OUT =       1.0624E-08

 PERCENT DISCREPANCY =          -0.00     PERCENT DISCREPANCY =           0.00




         TIME SUMMARY AT END OF TIME STEP   35 IN STRESS PERIOD    1
                    SECONDS     MINUTES      HOURS       DAYS        YEARS
                    -----------------------------------------------------------
   TIME STEP LENGTH 3.46343E+07 5.77238E+05  9620.6      400.86      1.0975    
 STRESS PERIOD TIME 3.67421E+08 6.12368E+06 1.02061E+05  4252.6      11.643    
         TOTAL TIME 3.67421E+08 6.12368E+06 1.02061E+05  4252.6      11.643    
 UBDSV1 SAVING           STO-SS ON UNIT   1022 AT TIME STEP     40, STRESS PERIOD      1
 UBDSV1 SAVING           STO-SY ON UNIT   1022 AT TIME STEP     40, STRESS PERIOD      1
 UBDSV1 SAVING     FLOW-JA-FACE ON UNIT   1022 AT TIME STEP     40, STRESS PERIOD      1
 UBDSV06 SAVING              WEL IN MODEL GWF_1            PACKAGE GWF_1           CONNECTED TO MODEL GWF_1            PACKAGE WEL-1            ON UNIT   1022 AT TIME STEP     40, STRESS PERIOD      1
 UBDSV06 SAVING              GHB IN MODEL GWF_1            PACKAGE GWF_1           CONNECTED TO MODEL GWF_1            PACKAGE GHB-1            ON UNIT   1022 AT TIME STEP     40, STRESS PERIOD      1
 UBDSV06 SAVING              RCH IN MODEL GWF_1            PACKAGE GWF_1           CONNECTED TO MODEL GWF_1            PACKAGE RCH-1            ON UNIT   1022 AT TIME STEP     40, STRESS PERIOD      1
 UBDSV06 SAVING              EVT IN MODEL GWF_1            PACKAGE GWF_1           CONNECTED TO MODEL GWF_1            PACKAGE EVT-1            ON UNIT   1022 AT TIME STEP     40, STRESS PERIOD      1
 UBDSV06 SAVING              SFR IN MODEL GWF_1            PACKAGE GWF_1           CONNECTED TO MODEL GWF_1            PACKAGE SFR-1            ON UNIT   1022 AT TIME STEP     40, STRESS PERIOD      1

              SFR (SFR-1)   PERIOD 1   STEP 40
 BOUNDARY        1  CELL              (1,1,1)   RATE     2.27027    
 BOUNDARY        2  CELL              (1,2,2)   RATE     3.45685    
 BOUNDARY        3  CELL              (1,3,3)   RATE     2.88787    
 BOUNDARY        4  CELL              (1,3,4)   RATE     2.60696    
 BOUNDARY        5  CELL              (1,4,5)   RATE     2.72090    
 BOUNDARY        6  CELL              (1,5,6)   RATE     2.00960    
 BOUNDARY        7  CELL              (1,6,6)   RATE     1.91716    
 BOUNDARY        8  CELL              (1,7,6)   RATE    0.241369    
 BOUNDARY        9  CELL              (1,8,6)   RATE     0.00000    
 BOUNDARY       10  CELL              (1,3,5)   RATE     2.00017    
 BOUNDARY       11  CELL              (1,3,6)   RATE     1.89314    
 BOUNDARY       12  CELL              (1,3,7)   RATE     1.59908    
 BOUNDARY       13  CELL              (1,4,8)   RATE     1.39664    
 BOUNDARY       14  CELL              (1,5,8)   RATE     0.00000    
 BOUNDARY       15  CELL              (1,6,8)   RATE     0.00000    
 BOUNDARY       16  CELL             (1,5,10)   RATE    0.905253    
 BOUNDARY       17  CELL              (1,5,9)   RATE     1.78348    
 BOUNDARY       18  CELL              (1,6,8)   RATE     1.22572    
 BOUNDARY       19  CELL              (1,6,8)   RATE     2.03898    
 BOUNDARY       20  CELL              (1,7,7)   RATE     2.46004    
 BOUNDARY       21  CELL              (1,8,7)   RATE     1.58653    
 BOUNDARY       22  CELL              (1,8,6)   RATE     0.00000    
 BOUNDARY       23  CELL              (1,9,6)   RATE     0.00000    
 BOUNDARY       24  CELL             (1,10,7)   RATE     0.00000    
 BOUNDARY       25  CELL             (1,11,7)   RATE     0.00000    
 BOUNDARY       26  CELL             (1,12,7)   RATE     0.00000    
 BOUNDARY       27  CELL             (1,13,7)   RATE   -0.105487    
 BOUNDARY       28  CELL             (1,14,9)   RATE     3.12706    
 BOUNDARY       29  CELL             (1,13,8)   RATE     6.39297    
 BOUNDARY       30  CELL             (1,13,7)   RATE     12.2216    
 BOUNDARY       31  CELL             (1,13,6)   RATE     12.1360    
 BOUNDARY       32  CELL             (1,13,5)   RATE     11.3175    
 BOUNDARY       33  CELL             (1,13,4)   RATE     7.99544    
 BOUNDARY       34  CELL             (1,13,3)   RATE     3.69086    
 BOUNDARY       35  CELL             (1,13,2)   RATE    0.434481    
 BOUNDARY       36  CELL             (1,13,1)   RATE    0.507572    

 UBDSV06 SAVING     FLOW-JA-FACE IN MODEL GWF_1            PACKAGE SFR-1           CONNECTED TO MODEL GWF_1            PACKAGE SFR-1            ON UNIT   1019 AT TIME STEP     40, STRESS PERIOD      1
 UBDSV06 SAVING              GWF IN MODEL GWF_1            PACKAGE SFR-1           CONNECTED TO MODEL GWF_1            PACKAGE GWF_1            ON UNIT   1019 AT TIME STEP     40, STRESS PERIOD      1
 UBDSV06 SAVING       EXT-INFLOW IN MODEL GWF_1            PACKAGE SFR-1           CONNECTED TO MODEL GWF_1            PACKAGE SFR-1            ON UNIT   1019 AT TIME STEP     40, STRESS PERIOD      1
 UBDSV06 SAVING         RAINFALL IN MODEL GWF_1            PACKAGE SFR-1           CONNECTED TO MODEL GWF_1            PACKAGE SFR-1            ON UNIT   1019 AT TIME STEP     40, STRESS PERIOD      1
 UBDSV06 SAVING           RUNOFF IN MODEL GWF_1            PACKAGE SFR-1           CONNECTED TO MODEL GWF_1            PACKAGE SFR-1            ON UNIT   1019 AT TIME STEP     40, STRESS PERIOD      1
 UBDSV06 SAVING      EVAPORATION IN MODEL GWF_1            PACKAGE SFR-1           CONNECTED TO MODEL GWF_1            PACKAGE SFR-1            ON UNIT   1019 AT TIME STEP     40, STRESS PERIOD      1
 UBDSV06 SAVING      EXT-OUTFLOW IN MODEL GWF_1            PACKAGE SFR-1           CONNECTED TO MODEL GWF_1            PACKAGE SFR-1            ON UNIT   1019 AT TIME STEP     40, STRESS PERIOD      1
1
  HEAD IN LAYER   1 AT END OF TIME STEP  40 IN STRESS PERIOD    1
  ---------------------------------------------------------------------------

            1           2           3           4           5           6           7           8           9          10
 ........................................................................................................................
   1    1073.       1057.      1.0000E+30  1.0000E+30  1.0000E+30  1.0000E+30  1.0000E+30  1.0000E+30  1.0000E+30  1.0000E+30
   2    1060.       1043.       1027.      1.0000E+30  1.0000E+30   1014.       1016.       1018.      1.0000E+30  1.0000E+30
   3   1.0000E+30   1023.       1013.       1004.       1002.       1005.       1010.       1011.      1.0000E+30  1.0000E+30
   4    1005.       1004.       999.0       991.0       988.9       988.8       994.3       1003.       1004.      1.0000E+30
   5    996.9       989.9       983.3       977.9       978.7       982.9       986.0       991.2       999.3       1007.    
   6    987.5       978.7       969.9       962.2       965.6       975.7       982.0       988.1       995.1       1005.    
   7    981.4       970.9       961.5       953.5       958.4       970.1       978.8       983.6       991.8      1.0000E+30
   8   1.0000E+30   966.3       958.2       950.4       956.2       967.9       975.8       982.2       991.2      1.0000E+30
   9   1.0000E+30   968.1       961.4       954.4       960.0       970.6       977.1       984.2       993.8      1.0000E+30
  10   1.0000E+30   975.7       971.1       965.3       969.5       978.3       983.8       990.9       1000.       1007.    
  11   1.0000E+30   986.7       986.4       983.4       985.7       990.5       994.8       1001.       1008.      1.0000E+30
  12    994.2       995.5       998.0       997.3       1000.       1005.       1009.       1017.       1023.      1.0000E+30
  13    992.7       997.8       1003.       1008.       1014.       1020.       1026.       1033.       1034.      1.0000E+30
  14   1.0000E+30   1001.       1005.       1010.       1015.       1020.       1027.       1034.       1038.      1.0000E+30
  15   1.0000E+30  1.0000E+30   1008.       1011.       1015.       1019.      1.0000E+30  1.0000E+30  1.0000E+30  1.0000E+30

 HEAD WILL BE SAVED ON UNIT 1021 AT END OF TIME STEP   40, STRESS PERIOD    1



 SFR (SFR-1) FLOWS   PERIOD      1   STEP       40
 ----------------------------------------------------------------------------------------------------------------------------------------------------
 REACH  REACH                 EXTERNAL      REACH       REACH       REACH       REACH       REACH       REACH     EXTERNAL      REACH      PERCENT   
  NO.   (LAYER,ROW,COLUMN)     INFLOW      INFLOW     RAINFALL     RUNOFF      LEAKAGE   EVAPORATION   OUTFLOW     OUTFLOW    IN - OUT   DIFFERENCE  
 ----------------------------------------------------------------------------------------------------------------------------------------------------
      1 (1,1,1)                25.00       0.000       0.000       0.000      -2.270       0.000      -22.73       0.000       0.000       0.000     
      2 (1,2,2)                0.000       22.73       0.000       0.000      -3.457       0.000      -19.27       0.000       0.000       0.000     
      3 (1,3,3)                0.000       19.27       0.000       0.000      -2.888       0.000      -16.39       0.000       0.000       0.000     
      4 (1,3,4)                0.000       16.39       0.000       0.000      -2.607       0.000      -13.78       0.000       0.000       0.000     
      5 (1,4,5)                0.000       6.889       0.000       0.000      -2.721       0.000      -4.168       0.000       0.000       0.000     
      6 (1,5,6)                0.000       4.168       0.000       0.000      -2.010       0.000      -2.159       0.000       0.000       0.000     
      7 (1,6,6)                0.000       2.159       0.000       0.000      -1.917       0.000     -0.2414       0.000       0.000       0.000     
      8 (1,7,6)                0.000      0.2414       0.000       0.000     -0.2414       0.000       0.000       0.000       0.000       0.000     
      9 (1,8,6)                0.000       0.000       0.000       0.000       0.000       0.000       0.000       0.000       0.000       0.000     
     10 (1,3,5)                0.000       6.889       0.000       0.000      -2.000       0.000      -4.889       0.000       0.000       0.000     
     11 (1,3,6)                0.000       4.889       0.000       0.000      -1.893       0.000      -2.996       0.000       0.000       0.000     
     12 (1,3,7)                0.000       2.996       0.000       0.000      -1.599       0.000      -1.397       0.000       0.000       0.000     
     13 (1,4,8)                0.000       1.397       0.000       0.000      -1.397       0.000       0.000       0.000       0.000       0.000     
     14 (1,5,8)                0.000       0.000       0.000       0.000       0.000       0.000       0.000       0.000       0.000       0.000     
     15 (1,6,8)                0.000       0.000       0.000       0.000       0.000       0.000       0.000       0.000       0.000       0.000     
     16 (1,5,10)               10.00       0.000       0.000       0.000     -0.9053       0.000      -9.095       0.000       0.000       0.000     
     17 (1,5,9)                0.000       9.095       0.000       0.000      -1.783       0.000      -7.311       0.000       0.000       0.000     
     18 (1,6,8)                0.000       7.311       0.000       0.000      -1.226       0.000      -6.086       0.000       0.000       0.000     
     19 (1,6,8)                0.000       6.086       0.000       0.000      -2.039       0.000      -4.047       0.000       0.000       0.000     
     20 (1,7,7)                0.000       4.047       0.000       0.000      -2.460       0.000      -1.587       0.000       0.000       0.000     
     21 (1,8,7)                0.000       1.587       0.000       0.000      -1.587       0.000       0.000       0.000       0.000       0.000     
     22 (1,8,6)                0.000       0.000       0.000       0.000       0.000       0.000       0.000       0.000       0.000       0.000     
     23 (1,9,6)                0.000       0.000       0.000       0.000       0.000       0.000       0.000       0.000       0.000       0.000     
     24 (1,10,7)               0.000       0.000       0.000       0.000       0.000       0.000       0.000       0.000       0.000       0.000     
     25 (1,11,7)               0.000       0.000       0.000       0.000       0.000       0.000       0.000       0.000       0.000       0.000     
     26 (1,12,7)               0.000       0.000       0.000       0.000       0.000       0.000       0.000       0.000       0.000       0.000     
     27 (1,13,7)               0.000       0.000       0.000       0.000      0.1055       0.000     -0.1055       0.000       0.000       0.000     
     28 (1,14,9)               150.0       0.000       0.000       0.000      -3.127       0.000      -146.9       0.000       0.000       0.000     
     29 (1,13,8)               0.000       146.9       0.000       0.000      -6.393       0.000      -140.5       0.000       0.000       0.000     
     30 (1,13,7)               0.000       140.5       0.000       0.000      -12.22       0.000      -128.3       0.000       0.000       0.000     
     31 (1,13,6)               0.000       128.4       0.000       0.000      -12.14       0.000      -116.2       0.000       0.000       0.000     
     32 (1,13,5)               0.000       116.2       0.000       0.000      -11.32       0.000      -104.9       0.000       0.000       0.000     
     33 (1,13,4)               0.000       104.9       0.000       0.000      -7.995       0.000      -96.91       0.000       0.000       0.000     
     34 (1,13,3)               0.000       96.91       0.000       0.000      -3.691       0.000      -93.22       0.000       0.000       0.000     
     35 (1,13,2)               0.000       93.22       0.000       0.000     -0.4345       0.000      -92.79       0.000       0.000       0.000     
     36 (1,13,1)               0.000       92.79       0.000       0.000     -0.5076       0.000       0.000      -92.28       0.000       0.000     


  SFR-1 BUDGET FOR ENTIRE MODEL AT END OF TIME STEP   40, STRESS PERIOD   1
  ------------------------------------------------------------------------------

     CUMULATIVE SFR-1      L**3       RATES FOR THIS TIME STEP      L**3/T
     ------------------                 ------------------------

           IN:                                      IN:
           ---                                      ---
          EXT-INFLOW =111002038415.3216            EXT-INFLOW =         185.0000
            RAINFALL =           0.0000              RAINFALL =           0.0000
              RUNOFF =           0.0000                RUNOFF =           0.0000
                 GWF =   618397197.4136                   GWF =           0.1055
         EVAPORATION =           0.0000           EVAPORATION =           0.0000
         EXT-OUTFLOW =           0.0000           EXT-OUTFLOW =           0.0000

            TOTAL IN =111620435612.7352              TOTAL IN =         185.1055

          OUT:                                     OUT:
          ----                                     ----
          EXT-INFLOW =           0.0000            EXT-INFLOW =           0.0000
            RAINFALL =           0.0000              RAINFALL =           0.0000
              RUNOFF =           0.0000                RUNOFF =           0.0000
                 GWF = 45966796763.7075                   GWF =          92.8234
         EVAPORATION =           0.0000           EVAPORATION =           0.0000
         EXT-OUTFLOW = 65653638849.0276           EXT-OUTFLOW =          92.2821

           TOTAL OUT =111620435612.7352             TOTAL OUT =         185.1055

            IN - OUT =       1.5259E-05              IN - OUT =           0.0000

 PERCENT DISCREPANCY =           0.00     PERCENT DISCREPANCY =           0.00



  VOLUME BUDGET FOR ENTIRE MODEL AT END OF TIME STEP   40, STRESS PERIOD   1
  ---------------------------------------------------------------------------------------------------

     CUMULATIVE VOLUME      L**3       RATES FOR THIS TIME STEP      L**3/T          PACKAGE NAME    
     ------------------                 ------------------------                     ----------------

           IN:                                      IN:
           ---                                      ---
              STO-SS =   190008744.7037                STO-SS =           0.1546     STORAGE         
              STO-SY = 22165994388.9087                STO-SY =          18.6697     STORAGE         
                 WEL =           0.0000                   WEL =           0.0000     WEL-1           
                 GHB =   152721371.4974                   GHB =           0.2558     GHB-1           
                 RCH =  1076269764.3648                   RCH =           1.7938     RCH-1           
                 EVT =           0.0000                   EVT =           0.0000     EVT-1           
                 SFR = 45966797006.4264                   SFR =          92.8234     SFR-1           

            TOTAL IN = 69551791275.9008              TOTAL IN =         113.6974

          OUT:                                     OUT:
          ----                                     ----
              STO-SS =        3478.4097                STO-SS =           0.0000     STORAGE         
              STO-SY =      406734.8032                STO-SY =           0.0000     STORAGE         
                 WEL = 60001101846.1198                   WEL =         100.0000     WEL-1           
                 GHB =   111384368.8979                   GHB =           0.1795     GHB-1           
                 RCH =           0.0000                   RCH =           0.0000     RCH-1           
                 EVT =  8820497980.3424                   EVT =          13.4124     EVT-1           
                 SFR =   618396932.1048                   SFR =           0.1055     SFR-1           

           TOTAL OUT = 69551791340.6777             TOTAL OUT =         113.6974

            IN - OUT =         -64.7769              IN - OUT =       2.7119E-09

 PERCENT DISCREPANCY =          -0.00     PERCENT DISCREPANCY =           0.00




         TIME SUMMARY AT END OF TIME STEP   40 IN STRESS PERIOD    1
                    SECONDS     MINUTES      HOURS       DAYS        YEARS
                    -----------------------------------------------------------
   TIME STEP LENGTH 5.57789E+07 9.29648E+05  15494.      645.59      1.7675    
 STRESS PERIOD TIME 6.00011E+08 1.00002E+07 1.66670E+05  6944.6      19.013    
         TOTAL TIME 6.00011E+08 1.00002E+07 1.66670E+05  6944.6      19.013    
 UBDSV1 SAVING           STO-SS ON UNIT   1022 AT TIME STEP     45, STRESS PERIOD      1
 UBDSV1 SAVING           STO-SY ON UNIT   1022 AT TIME STEP     45, STRESS PERIOD      1
 UBDSV1 SAVING     FLOW-JA-FACE ON UNIT   1022 AT TIME STEP     45, STRESS PERIOD      1
 UBDSV06 SAVING              WEL IN MODEL GWF_1            PACKAGE GWF_1           CONNECTED TO MODEL GWF_1            PACKAGE WEL-1            ON UNIT   1022 AT TIME STEP     45, STRESS PERIOD      1
 UBDSV06 SAVING              GHB IN MODEL GWF_1            PACKAGE GWF_1           CONNECTED TO MODEL GWF_1            PACKAGE GHB-1            ON UNIT   1022 AT TIME STEP     45, STRESS PERIOD      1
 UBDSV06 SAVING              RCH IN MODEL GWF_1            PACKAGE GWF_1           CONNECTED TO MODEL GWF_1            PACKAGE RCH-1            ON UNIT   1022 AT TIME STEP     45, STRESS PERIOD      1
 UBDSV06 SAVING              EVT IN MODEL GWF_1            PACKAGE GWF_1           CONNECTED TO MODEL GWF_1            PACKAGE EVT-1            ON UNIT   1022 AT TIME STEP     45, STRESS PERIOD      1
 UBDSV06 SAVING              SFR IN MODEL GWF_1            PACKAGE GWF_1           CONNECTED TO MODEL GWF_1            PACKAGE SFR-1            ON UNIT   1022 AT TIME STEP     45, STRESS PERIOD      1

              SFR (SFR-1)   PERIOD 1   STEP 45
 BOUNDARY        1  CELL              (1,1,1)   RATE     2.27027    
 BOUNDARY        2  CELL              (1,2,2)   RATE     3.45685    
 BOUNDARY        3  CELL              (1,3,3)   RATE     2.88787    
 BOUNDARY        4  CELL              (1,3,4)   RATE     2.60696    
 BOUNDARY        5  CELL              (1,4,5)   RATE     2.72090    
 BOUNDARY        6  CELL              (1,5,6)   RATE     2.00960    
 BOUNDARY        7  CELL              (1,6,6)   RATE     1.91716    
 BOUNDARY        8  CELL              (1,7,6)   RATE    0.241369    
 BOUNDARY        9  CELL              (1,8,6)   RATE     0.00000    
 BOUNDARY       10  CELL              (1,3,5)   RATE     2.00017    
 BOUNDARY       11  CELL              (1,3,6)   RATE     1.89314    
 BOUNDARY       12  CELL              (1,3,7)   RATE     1.59908    
 BOUNDARY       13  CELL              (1,4,8)   RATE     1.39664    
 BOUNDARY       14  CELL              (1,5,8)   RATE     0.00000    
 BOUNDARY       15  CELL              (1,6,8)   RATE     0.00000    
 BOUNDARY       16  CELL             (1,5,10)   RATE    0.905253    
 BOUNDARY       17  CELL              (1,5,9)   RATE     1.78348    
 BOUNDARY       18  CELL              (1,6,8)   RATE     1.22572    
 BOUNDARY       19  CELL              (1,6,8)   RATE     2.03898    
 BOUNDARY       20  CELL              (1,7,7)   RATE     2.46004    
 BOUNDARY       21  CELL              (1,8,7)   RATE     1.58653    
 BOUNDARY       22  CELL              (1,8,6)   RATE     0.00000    
 BOUNDARY       23  CELL              (1,9,6)   RATE     0.00000    
 BOUNDARY       24  CELL             (1,10,7)   RATE     0.00000    
 BOUNDARY       25  CELL             (1,11,7)   RATE     0.00000    
 BOUNDARY       26  CELL             (1,12,7)   RATE     0.00000    
 BOUNDARY       27  CELL             (1,13,7)   RATE   -4.284865E-02
 BOUNDARY       28  CELL             (1,14,9)   RATE     3.21295    
 BOUNDARY       29  CELL             (1,13,8)   RATE     6.86677    
 BOUNDARY       30  CELL             (1,13,7)   RATE     13.6890    
 BOUNDARY       31  CELL             (1,13,6)   RATE     13.8134    
 BOUNDARY       32  CELL             (1,13,5)   RATE     13.1638    
 BOUNDARY       33  CELL             (1,13,4)   RATE     9.53602    
 BOUNDARY       34  CELL             (1,13,3)   RATE     4.64878    
 BOUNDARY       35  CELL             (1,13,2)   RATE    0.674993    
 BOUNDARY       36  CELL             (1,13,1)   RATE    0.553766    

 UBDSV06 SAVING     FLOW-JA-FACE IN MODEL GWF_1            PACKAGE SFR-1           CONNECTED TO MODEL GWF_1            PACKAGE SFR-1            ON UNIT   1019 AT TIME STEP     45, STRESS PERIOD      1
 UBDSV06 SAVING              GWF IN MODEL GWF_1            PACKAGE SFR-1           CONNECTED TO MODEL GWF_1            PACKAGE GWF_1            ON UNIT   1019 AT TIME STEP     45, STRESS PERIOD      1
 UBDSV06 SAVING       EXT-INFLOW IN MODEL GWF_1            PACKAGE SFR-1           CONNECTED TO MODEL GWF_1            PACKAGE SFR-1            ON UNIT   1019 AT TIME STEP     45, STRESS PERIOD      1
 UBDSV06 SAVING         RAINFALL IN MODEL GWF_1            PACKAGE SFR-1           CONNECTED TO MODEL GWF_1            PACKAGE SFR-1            ON UNIT   1019 AT TIME STEP     45, STRESS PERIOD      1
 UBDSV06 SAVING           RUNOFF IN MODEL GWF_1            PACKAGE SFR-1           CONNECTED TO MODEL GWF_1            PACKAGE SFR-1            ON UNIT   1019 AT TIME STEP     45, STRESS PERIOD      1
 UBDSV06 SAVING      EVAPORATION IN MODEL GWF_1            PACKAGE SFR-1           CONNECTED TO MODEL GWF_1            PACKAGE SFR-1            ON UNIT   1019 AT TIME STEP     45, STRESS PERIOD      1
 UBDSV06 SAVING      EXT-OUTFLOW IN MODEL GWF_1            PACKAGE SFR-1           CONNECTED TO MODEL GWF_1            PACKAGE SFR-1            ON UNIT   1019 AT TIME STEP     45, STRESS PERIOD      1
1
  HEAD IN LAYER   1 AT END OF TIME STEP  45 IN STRESS PERIOD    1
  ---------------------------------------------------------------------------

            1           2           3           4           5           6           7           8           9          10
 ........................................................................................................................
   1    1061.       1042.      1.0000E+30  1.0000E+30  1.0000E+30  1.0000E+30  1.0000E+30  1.0000E+30  1.0000E+30  1.0000E+30
   2    1044.       1026.       1008.      1.0000E+30  1.0000E+30   994.8       997.3       998.4      1.0000E+30  1.0000E+30
   3   1.0000E+30   1004.       994.0       985.2       983.8       986.6       991.7       991.6      1.0000E+30  1.0000E+30
   4    985.2       984.6       979.8       972.4       970.6       970.6       976.1       985.3       985.7      1.0000E+30
   5    976.7       969.9       964.3       959.6       960.6       965.1       968.4       973.5       981.5       990.1    
   6    967.2       959.0       951.5       944.4       948.2       958.7       965.1       971.0       977.2       988.1    
   7    961.6       952.3       944.2       936.8       942.1       954.3       962.9       967.1       975.1      1.0000E+30
   8   1.0000E+30   950.4       943.1       935.7       942.0       954.1       962.0       967.4       976.4      1.0000E+30
   9   1.0000E+30   955.6       949.3       942.5       948.3       959.2       965.8       972.5       982.2      1.0000E+30
  10   1.0000E+30   966.9       962.4       956.4       960.6       969.5       975.1       982.3       991.7       997.5    
  11   1.0000E+30   981.6       981.3       977.5       979.7       984.5       988.8       995.8       1003.      1.0000E+30
  12    993.4       993.7       995.8       994.4       997.0       1001.       1006.       1015.       1020.      1.0000E+30
  13    992.6       997.7       1003.       1008.       1013.       1020.       1026.       1033.       1034.      1.0000E+30
  14   1.0000E+30   1001.       1005.       1009.       1014.       1020.       1027.       1033.       1038.      1.0000E+30
  15   1.0000E+30  1.0000E+30   1008.       1011.       1015.       1018.      1.0000E+30  1.0000E+30  1.0000E+30  1.0000E+30

 HEAD WILL BE SAVED ON UNIT 1021 AT END OF TIME STEP   45, STRESS PERIOD    1



 SFR (SFR-1) FLOWS   PERIOD      1   STEP       45
 ----------------------------------------------------------------------------------------------------------------------------------------------------
 REACH  REACH                 EXTERNAL      REACH       REACH       REACH       REACH       REACH       REACH     EXTERNAL      REACH      PERCENT   
  NO.   (LAYER,ROW,COLUMN)     INFLOW      INFLOW     RAINFALL     RUNOFF      LEAKAGE   EVAPORATION   OUTFLOW     OUTFLOW    IN - OUT   DIFFERENCE  
 ----------------------------------------------------------------------------------------------------------------------------------------------------
      1 (1,1,1)                25.00       0.000       0.000       0.000      -2.270       0.000      -22.73       0.000       0.000       0.000     
      2 (1,2,2)                0.000       22.73       0.000       0.000      -3.457       0.000      -19.27       0.000       0.000       0.000     
      3 (1,3,3)                0.000       19.27       0.000       0.000      -2.888       0.000      -16.39       0.000       0.000       0.000     
      4 (1,3,4)                0.000       16.39       0.000       0.000      -2.607       0.000      -13.78       0.000       0.000       0.000     
      5 (1,4,5)                0.000       6.889       0.000       0.000      -2.721       0.000      -4.168       0.000       0.000       0.000     
      6 (1,5,6)                0.000       4.168       0.000       0.000      -2.010       0.000      -2.159       0.000       0.000       0.000     
      7 (1,6,6)                0.000       2.159       0.000       0.000      -1.917       0.000     -0.2414       0.000       0.000       0.000     
      8 (1,7,6)                0.000      0.2414       0.000       0.000     -0.2414       0.000       0.000       0.000       0.000       0.000     
      9 (1,8,6)                0.000       0.000       0.000       0.000       0.000       0.000       0.000       0.000       0.000       0.000     
     10 (1,3,5)                0.000       6.889       0.000       0.000      -2.000       0.000      -4.889       0.000       0.000       0.000     
     11 (1,3,6)                0.000       4.889       0.000       0.000      -1.893       0.000      -2.996       0.000       0.000       0.000     
     12 (1,3,7)                0.000       2.996       0.000       0.000      -1.599       0.000      -1.397       0.000       0.000       0.000     
     13 (1,4,8)                0.000       1.397       0.000       0.000      -1.397       0.000       0.000       0.000       0.000       0.000     
     14 (1,5,8)                0.000       0.000       0.000       0.000       0.000       0.000       0.000       0.000       0.000       0.000     
     15 (1,6,8)                0.000       0.000       0.000       0.000       0.000       0.000       0.000       0.000       0.000       0.000     
     16 (1,5,10)               10.00       0.000       0.000       0.000     -0.9053       0.000      -9.095       0.000       0.000       0.000     
     17 (1,5,9)                0.000       9.095       0.000       0.000      -1.783       0.000      -7.311       0.000       0.000       0.000     
     18 (1,6,8)                0.000       7.311       0.000       0.000      -1.226       0.000      -6.086       0.000       0.000       0.000     
     19 (1,6,8)                0.000       6.086       0.000       0.000      -2.039       0.000      -4.047       0.000       0.000       0.000     
     20 (1,7,7)                0.000       4.047       0.000       0.000      -2.460       0.000      -1.587       0.000       0.000       0.000     
     21 (1,8,7)                0.000       1.587       0.000       0.000      -1.587       0.000       0.000       0.000       0.000       0.000     
     22 (1,8,6)                0.000       0.000       0.000       0.000       0.000       0.000       0.000       0.000       0.000       0.000     
     23 (1,9,6)                0.000       0.000       0.000       0.000       0.000       0.000       0.000       0.000       0.000       0.000     
     24 (1,10,7)               0.000       0.000       0.000       0.000       0.000       0.000       0.000       0.000       0.000       0.000     
     25 (1,11,7)               0.000       0.000       0.000       0.000       0.000       0.000       0.000       0.000       0.000       0.000     
     26 (1,12,7)               0.000       0.000       0.000       0.000       0.000       0.000       0.000       0.000       0.000       0.000     
     27 (1,13,7)               0.000       0.000       0.000       0.000      0.4285E-01   0.000     -0.4285E-01   0.000       0.000       0.000     
     28 (1,14,9)               150.0       0.000       0.000       0.000      -3.213       0.000      -146.8       0.000       0.000       0.000     
     29 (1,13,8)               0.000       146.8       0.000       0.000      -6.867       0.000      -139.9       0.000       0.000       0.000     
     30 (1,13,7)               0.000       139.9       0.000       0.000      -13.69       0.000      -126.2       0.000       0.000       0.000     
     31 (1,13,6)               0.000       126.3       0.000       0.000      -13.81       0.000      -112.5       0.000       0.000       0.000     
     32 (1,13,5)               0.000       112.5       0.000       0.000      -13.16       0.000      -99.30       0.000       0.000       0.000     
     33 (1,13,4)               0.000       99.30       0.000       0.000      -9.536       0.000      -89.76       0.000       0.000       0.000     
     34 (1,13,3)               0.000       89.76       0.000       0.000      -4.649       0.000      -85.11       0.000       0.000       0.000     
     35 (1,13,2)               0.000       85.11       0.000       0.000     -0.6750       0.000      -84.44       0.000       0.000       0.000     
     36 (1,13,1)               0.000       84.44       0.000       0.000     -0.5538       0.000       0.000      -83.88       0.000       0.000     


  SFR-1 BUDGET FOR ENTIRE MODEL AT END OF TIME STEP   45, STRESS PERIOD   1
  ------------------------------------------------------------------------------

     CUMULATIVE SFR-1      L**3       RATES FOR THIS TIME STEP      L**3/T
     ------------------                 ------------------------

           IN:                                      IN:
           ---                                      ---
          EXT-INFLOW =180301049560.5302            EXT-INFLOW =         185.0000
            RAINFALL =           0.0000              RAINFALL =           0.0000
              RUNOFF =           0.0000                RUNOFF =           0.0000
                 GWF =   642493110.2601                   GWF =       4.2849E-02
         EVAPORATION =           0.0000           EVAPORATION =           0.0000
         EXT-OUTFLOW =           0.0000           EXT-OUTFLOW =           0.0000

            TOTAL IN =180943542670.7903              TOTAL IN =         185.0428

          OUT:                                     OUT:
          ----                                     ----
          EXT-INFLOW =           0.0000            EXT-INFLOW =           0.0000
            RAINFALL =           0.0000              RAINFALL =           0.0000
              RUNOFF =           0.0000                RUNOFF =           0.0000
                 GWF = 82785403665.1263                   GWF =         101.1594
         EVAPORATION =           0.0000           EVAPORATION =           0.0000
         EXT-OUTFLOW = 98158139005.6639           EXT-OUTFLOW =          83.8834

           TOTAL OUT =180943542670.7902             TOTAL OUT =         185.0428

            IN - OUT =       3.0518E-05              IN - OUT =           0.0000

 PERCENT DISCREPANCY =           0.00     PERCENT DISCREPANCY =           0.00



  VOLUME BUDGET FOR ENTIRE MODEL AT END OF TIME STEP   45, STRESS PERIOD   1
  ---------------------------------------------------------------------------------------------------

     CUMULATIVE VOLUME      L**3       RATES FOR THIS TIME STEP      L**3/T          PACKAGE NAME    
     ------------------                 ------------------------                     ----------------

           IN:                                      IN:
           ---                                      ---
              STO-SS =   229640457.7096                STO-SS =       8.0606E-02     STORAGE         
              STO-SY = 27027417348.3854                STO-SY =           9.9909     STORAGE         
                 WEL =           0.0000                   WEL =           0.0000     WEL-1           
                 GHB =   248708936.8087                   GHB =           0.2565     GHB-1           
                 RCH =  1748189230.5362                   RCH =           1.7938     RCH-1           
                 EVT =           0.0000                   EVT =           0.0000     EVT-1           
                 SFR = 82785403902.9007                   SFR =         101.1594     SFR-1           

            TOTAL IN =112039359876.3407              TOTAL IN =         113.2811

          OUT:                                     OUT:
          ----                                     ----
              STO-SS =        3478.4097                STO-SS =           0.0000     STORAGE         
              STO-SY =      406734.8032                STO-SY =           0.0000     STORAGE         
                 WEL = 97460026789.4758                   WEL =         100.0000     WEL-1           
                 GHB =   177885418.6089                   GHB =           0.1765     GHB-1           
                 RCH =           0.0000                   RCH =           0.0000     RCH-1           
                 EVT = 13758544674.0550                   EVT =          13.0618     EVT-1           
                 SFR =   642492844.9328                   SFR =       4.2849E-02     SFR-1           

           TOTAL OUT =112039359940.2853             TOTAL OUT =         113.2811

            IN - OUT =         -63.9446              IN - OUT =      -9.2186E-10

 PERCENT DISCREPANCY =          -0.00     PERCENT DISCREPANCY =          -0.00




         TIME SUMMARY AT END OF TIME STEP   45 IN STRESS PERIOD    1
                    SECONDS     MINUTES      HOURS       DAYS        YEARS
                    -----------------------------------------------------------
   TIME STEP LENGTH 8.98325E+07 1.49721E+06  24953.      1039.7      2.8466    
 STRESS PERIOD TIME 9.74600E+08 1.62433E+07 2.70722E+05  11280.      30.883    
         TOTAL TIME 9.74600E+08 1.62433E+07 2.70722E+05  11280.      30.883    
 UBDSV1 SAVING           STO-SS ON UNIT   1022 AT TIME STEP     50, STRESS PERIOD      1
 UBDSV1 SAVING           STO-SY ON UNIT   1022 AT TIME STEP     50, STRESS PERIOD      1
 UBDSV1 SAVING     FLOW-JA-FACE ON UNIT   1022 AT TIME STEP     50, STRESS PERIOD      1
 UBDSV06 SAVING              WEL IN MODEL GWF_1            PACKAGE GWF_1           CONNECTED TO MODEL GWF_1            PACKAGE WEL-1            ON UNIT   1022 AT TIME STEP     50, STRESS PERIOD      1
 UBDSV06 SAVING              GHB IN MODEL GWF_1            PACKAGE GWF_1           CONNECTED TO MODEL GWF_1            PACKAGE GHB-1            ON UNIT   1022 AT TIME STEP     50, STRESS PERIOD      1
 UBDSV06 SAVING              RCH IN MODEL GWF_1            PACKAGE GWF_1           CONNECTED TO MODEL GWF_1            PACKAGE RCH-1            ON UNIT   1022 AT TIME STEP     50, STRESS PERIOD      1
 UBDSV06 SAVING              EVT IN MODEL GWF_1            PACKAGE GWF_1           CONNECTED TO MODEL GWF_1            PACKAGE EVT-1            ON UNIT   1022 AT TIME STEP     50, STRESS PERIOD      1
 UBDSV06 SAVING              SFR IN MODEL GWF_1            PACKAGE GWF_1           CONNECTED TO MODEL GWF_1            PACKAGE SFR-1            ON UNIT   1022 AT TIME STEP     50, STRESS PERIOD      1

              SFR (SFR-1)   PERIOD 1   STEP 50
 BOUNDARY        1  CELL              (1,1,1)   RATE     2.27027    
 BOUNDARY        2  CELL              (1,2,2)   RATE     3.45685    
 BOUNDARY        3  CELL              (1,3,3)   RATE     2.88787    
 BOUNDARY        4  CELL              (1,3,4)   RATE     2.60696    
 BOUNDARY        5  CELL              (1,4,5)   RATE     2.72090    
 BOUNDARY        6  CELL              (1,5,6)   RATE     2.00960    
 BOUNDARY        7  CELL              (1,6,6)   RATE     1.91716    
 BOUNDARY        8  CELL              (1,7,6)   RATE    0.241369    
 BOUNDARY        9  CELL              (1,8,6)   RATE     0.00000    
 BOUNDARY       10  CELL              (1,3,5)   RATE     2.00017    
 BOUNDARY       11  CELL              (1,3,6)   RATE     1.89314    
 BOUNDARY       12  CELL              (1,3,7)   RATE     1.59908    
 BOUNDARY       13  CELL              (1,4,8)   RATE     1.39664    
 BOUNDARY       14  CELL              (1,5,8)   RATE     0.00000    
 BOUNDARY       15  CELL              (1,6,8)   RATE     0.00000    
 BOUNDARY       16  CELL             (1,5,10)   RATE    0.905253    
 BOUNDARY       17  CELL              (1,5,9)   RATE     1.78348    
 BOUNDARY       18  CELL              (1,6,8)   RATE     1.22572    
 BOUNDARY       19  CELL              (1,6,8)   RATE     2.03898    
 BOUNDARY       20  CELL              (1,7,7)   RATE     2.46004    
 BOUNDARY       21  CELL              (1,8,7)   RATE     1.58653    
 BOUNDARY       22  CELL              (1,8,6)   RATE     0.00000    
 BOUNDARY       23  CELL              (1,9,6)   RATE     0.00000    
 BOUNDARY       24  CELL             (1,10,7)   RATE     0.00000    
 BOUNDARY       25  CELL             (1,11,7)   RATE     0.00000    
 BOUNDARY       26  CELL             (1,12,7)   RATE     0.00000    
 BOUNDARY       27  CELL             (1,13,7)   RATE   -8.838177E-04
 BOUNDARY       28  CELL             (1,14,9)   RATE     3.26889    
 BOUNDARY       29  CELL             (1,13,8)   RATE     7.18757    
 BOUNDARY       30  CELL             (1,13,7)   RATE     14.7123    
 BOUNDARY       31  CELL             (1,13,6)   RATE     14.9881    
 BOUNDARY       32  CELL             (1,13,5)   RATE     14.4595    
 BOUNDARY       33  CELL             (1,13,4)   RATE     10.6151    
 BOUNDARY       34  CELL             (1,13,3)   RATE     5.31539    
 BOUNDARY       35  CELL             (1,13,2)   RATE    0.838796    
 BOUNDARY       36  CELL             (1,13,1)   RATE    0.584502    

 UBDSV06 SAVING     FLOW-JA-FACE IN MODEL GWF_1            PACKAGE SFR-1           CONNECTED TO MODEL GWF_1            PACKAGE SFR-1            ON UNIT   1019 AT TIME STEP     50, STRESS PERIOD      1
 UBDSV06 SAVING              GWF IN MODEL GWF_1            PACKAGE SFR-1           CONNECTED TO MODEL GWF_1            PACKAGE GWF_1            ON UNIT   1019 AT TIME STEP     50, STRESS PERIOD      1
 UBDSV06 SAVING       EXT-INFLOW IN MODEL GWF_1            PACKAGE SFR-1           CONNECTED TO MODEL GWF_1            PACKAGE SFR-1            ON UNIT   1019 AT TIME STEP     50, STRESS PERIOD      1
 UBDSV06 SAVING         RAINFALL IN MODEL GWF_1            PACKAGE SFR-1           CONNECTED TO MODEL GWF_1            PACKAGE SFR-1            ON UNIT   1019 AT TIME STEP     50, STRESS PERIOD      1
 UBDSV06 SAVING           RUNOFF IN MODEL GWF_1            PACKAGE SFR-1           CONNECTED TO MODEL GWF_1            PACKAGE SFR-1            ON UNIT   1019 AT TIME STEP     50, STRESS PERIOD      1
 UBDSV06 SAVING      EVAPORATION IN MODEL GWF_1            PACKAGE SFR-1           CONNECTED TO MODEL GWF_1            PACKAGE SFR-1            ON UNIT   1019 AT TIME STEP     50, STRESS PERIOD      1
 UBDSV06 SAVING      EXT-OUTFLOW IN MODEL GWF_1            PACKAGE SFR-1           CONNECTED TO MODEL GWF_1            PACKAGE SFR-1            ON UNIT   1019 AT TIME STEP     50, STRESS PERIOD      1
1
  HEAD IN LAYER   1 AT END OF TIME STEP  50 IN STRESS PERIOD    1
  ---------------------------------------------------------------------------

            1           2           3           4           5           6           7           8           9          10
 ........................................................................................................................
   1    1054.       1032.      1.0000E+30  1.0000E+30  1.0000E+30  1.0000E+30  1.0000E+30  1.0000E+30  1.0000E+30  1.0000E+30
   2    1034.       1013.       993.6      1.0000E+30  1.0000E+30   980.8       983.2       983.9      1.0000E+30  1.0000E+30
   3   1.0000E+30   989.9       979.6       971.1       970.0       972.9       977.9       977.3      1.0000E+30  1.0000E+30
   4    969.9       969.6       965.4       958.5       956.9       957.0       962.6       972.1       972.1      1.0000E+30
   5    961.5       954.7       950.1       945.9       947.2       952.0       955.3       960.4       968.4       978.8    
   6    951.7       944.1       937.6       931.1       935.2       946.1       952.5       958.4       963.8       976.7    
   7    946.4       938.3       931.4       924.5       930.2       942.7       951.3       954.9       963.0      1.0000E+30
   8   1.0000E+30   938.6       932.0       924.9       931.5       944.0       951.9       956.4       965.8      1.0000E+30
   9   1.0000E+30   946.6       940.5       933.8       939.8       950.9       957.6       964.0       974.2      1.0000E+30
  10   1.0000E+30   960.7       956.1       950.1       954.1       963.2       968.9       976.3       986.1       991.3    
  11   1.0000E+30   978.1       977.7       973.4       975.4       980.2       984.6       991.9       999.4      1.0000E+30
  12    992.8       992.4       994.3       992.3       994.8       999.1       1004.       1013.       1019.      1.0000E+30
  13    992.6       997.6       1003.       1008.       1013.       1019.       1026.       1033.       1034.      1.0000E+30
  14   1.0000E+30   1001.       1005.       1009.       1014.       1020.       1026.       1033.       1038.      1.0000E+30
  15   1.0000E+30  1.0000E+30   1008.       1011.       1014.       1018.      1.0000E+30  1.0000E+30  1.0000E+30  1.0000E+30

 HEAD WILL BE SAVED ON UNIT 1021 AT END OF TIME STEP   50, STRESS PERIOD    1



 SFR (SFR-1) FLOWS   PERIOD      1   STEP       50
 ----------------------------------------------------------------------------------------------------------------------------------------------------
 REACH  REACH                 EXTERNAL      REACH       REACH       REACH       REACH       REACH       REACH     EXTERNAL      REACH      PERCENT   
  NO.   (LAYER,ROW,COLUMN)     INFLOW      INFLOW     RAINFALL     RUNOFF      LEAKAGE   EVAPORATION   OUTFLOW     OUTFLOW    IN - OUT   DIFFERENCE  
 ----------------------------------------------------------------------------------------------------------------------------------------------------
      1 (1,1,1)                25.00       0.000       0.000       0.000      -2.270       0.000      -22.73       0.000       0.000       0.000     
      2 (1,2,2)                0.000       22.73       0.000       0.000      -3.457       0.000      -19.27       0.000       0.000       0.000     
      3 (1,3,3)                0.000       19.27       0.000       0.000      -2.888       0.000      -16.39       0.000       0.000       0.000     
      4 (1,3,4)                0.000       16.39       0.000       0.000      -2.607       0.000      -13.78       0.000       0.000       0.000     
      5 (1,4,5)                0.000       6.889       0.000       0.000      -2.721       0.000      -4.168       0.000       0.000       0.000     
      6 (1,5,6)                0.000       4.168       0.000       0.000      -2.010       0.000      -2.159       0.000       0.000       0.000     
      7 (1,6,6)                0.000       2.159       0.000       0.000      -1.917       0.000     -0.2414       0.000       0.000       0.000     
      8 (1,7,6)                0.000      0.2414       0.000       0.000     -0.2414       0.000       0.000       0.000       0.000       0.000     
      9 (1,8,6)                0.000       0.000       0.000       0.000       0.000       0.000       0.000       0.000       0.000       0.000     
     10 (1,3,5)                0.000       6.889       0.000       0.000      -2.000       0.000      -4.889       0.000       0.000       0.000     
     11 (1,3,6)                0.000       4.889       0.000       0.000      -1.893       0.000      -2.996       0.000       0.000       0.000     
     12 (1,3,7)                0.000       2.996       0.000       0.000      -1.599       0.000      -1.397       0.000       0.000       0.000     
     13 (1,4,8)                0.000       1.397       0.000       0.000      -1.397       0.000       0.000       0.000       0.000       0.000     
     14 (1,5,8)                0.000       0.000       0.000       0.000       0.000       0.000       0.000       0.000       0.000       0.000     
     15 (1,6,8)                0.000       0.000       0.000       0.000       0.000       0.000       0.000       0.000       0.000       0.000     
     16 (1,5,10)               10.00       0.000       0.000       0.000     -0.9053       0.000      -9.095       0.000       0.000       0.000     
     17 (1,5,9)                0.000       9.095       0.000       0.000      -1.783       0.000      -7.311       0.000       0.000       0.000     
     18 (1,6,8)                0.000       7.311       0.000       0.000      -1.226       0.000      -6.086       0.000       0.000       0.000     
     19 (1,6,8)                0.000       6.086       0.000       0.000      -2.039       0.000      -4.047       0.000       0.000       0.000     
     20 (1,7,7)                0.000       4.047       0.000       0.000      -2.460       0.000      -1.587       0.000       0.000       0.000     
     21 (1,8,7)                0.000       1.587       0.000       0.000      -1.587       0.000       0.000       0.000       0.000       0.000     
     22 (1,8,6)                0.000       0.000       0.000       0.000       0.000       0.000       0.000       0.000       0.000       0.000     
     23 (1,9,6)                0.000       0.000       0.000       0.000       0.000       0.000       0.000       0.000       0.000       0.000     
     24 (1,10,7)               0.000       0.000       0.000       0.000       0.000       0.000       0.000       0.000       0.000       0.000     
     25 (1,11,7)               0.000       0.000       0.000       0.000       0.000       0.000       0.000       0.000       0.000       0.000     
     26 (1,12,7)               0.000       0.000       0.000       0.000       0.000       0.000       0.000       0.000       0.000       0.000     
     27 (1,13,7)               0.000       0.000       0.000       0.000      0.8838E-03   0.000     -0.8838E-03   0.000       0.000       0.000     
     28 (1,14,9)               150.0       0.000       0.000       0.000      -3.269       0.000      -146.7       0.000       0.000       0.000     
     29 (1,13,8)               0.000       146.7       0.000       0.000      -7.188       0.000      -139.5       0.000       0.000       0.000     
     30 (1,13,7)               0.000       139.5       0.000       0.000      -14.71       0.000      -124.8       0.000       0.000       0.000     
     31 (1,13,6)               0.000       124.8       0.000       0.000      -14.99       0.000      -109.8       0.000       0.000       0.000     
     32 (1,13,5)               0.000       109.8       0.000       0.000      -14.46       0.000      -95.38       0.000       0.000       0.000     
     33 (1,13,4)               0.000       95.38       0.000       0.000      -10.62       0.000      -84.77       0.000       0.000       0.000     
     34 (1,13,3)               0.000       84.77       0.000       0.000      -5.315       0.000      -79.45       0.000       0.000       0.000     
     35 (1,13,2)               0.000       79.45       0.000       0.000     -0.8388       0.000      -78.62       0.000       0.000       0.000     
     36 (1,13,1)               0.000       78.62       0.000       0.000     -0.5845       0.000       0.000      -78.03       0.000       0.000     


  SFR-1 BUDGET FOR ENTIRE MODEL AT END OF TIME STEP   50, STRESS PERIOD   1
  ------------------------------------------------------------------------------

     CUMULATIVE SFR-1      L**3       RATES FOR THIS TIME STEP      L**3/T
     ------------------                 ------------------------

           IN:                                      IN:
           ---                                      ---
          EXT-INFLOW =291907800000.0000            EXT-INFLOW =         185.0000
            RAINFALL =           0.0000              RAINFALL =           0.0000
              RUNOFF =           0.0000                RUNOFF =           0.0000
                 GWF =   651012951.6482                   GWF =       8.8382E-04
         EVAPORATION =           0.0000           EVAPORATION =           0.0000
         EXT-OUTFLOW =           0.0000           EXT-OUTFLOW =           0.0000

            TOTAL IN =292558812951.6481              TOTAL IN =         185.0009

          OUT:                                     OUT:
          ----                                     ----
          EXT-INFLOW =           0.0000            EXT-INFLOW =           0.0000
            RAINFALL =           0.0000              RAINFALL =           0.0000
              RUNOFF =           0.0000                RUNOFF =           0.0000
                 GWF =146186262878.8989                   GWF =         106.9702
         EVAPORATION =           0.0000           EVAPORATION =           0.0000
         EXT-OUTFLOW =146372550072.7493           EXT-OUTFLOW =          78.0307

           TOTAL OUT =292558812951.6481             TOTAL OUT =         185.0009

            IN - OUT =           0.0000              IN - OUT =           0.0000

 PERCENT DISCREPANCY =           0.00     PERCENT DISCREPANCY =           0.00



  VOLUME BUDGET FOR ENTIRE MODEL AT END OF TIME STEP   50, STRESS PERIOD   1
  ---------------------------------------------------------------------------------------------------

     CUMULATIVE VOLUME      L**3       RATES FOR THIS TIME STEP      L**3/T          PACKAGE NAME    
     ------------------                 ------------------------                     ----------------

           IN:                                      IN:
           ---                                      ---
              STO-SS =   258005211.9517                STO-SS =       3.1195E-02     STORAGE         
              STO-SY = 30583070116.8312                STO-SY =           3.9398     STORAGE         
                 WEL =           0.0000                   WEL =           0.0000     WEL-1           
                 GHB =   403581814.0577                   GHB =           0.2568     GHB-1           
                 RCH =  2830322250.0000                   RCH =           1.7938     RCH-1           
                 EVT =           0.0000                   EVT =           0.0000     EVT-1           
                 SFR =146186263110.7583                   SFR =         106.9702     SFR-1           

            TOTAL IN =180261242503.5989              TOTAL IN =         112.9918

          OUT:                                     OUT:
          ----                                     ----
              STO-SS =        3478.4097                STO-SS =           0.0000     STORAGE         
              STO-SY =      406734.8032                STO-SY =           0.0000     STORAGE         
                 WEL =157788000000.0000                   WEL =         100.0000     WEL-1           
                 GHB =   283516473.8102                   GHB =           0.1744     GHB-1           
                 RCH =           0.0000                   RCH =           0.0000     RCH-1           
                 EVT = 21538303198.9582                   EVT =          12.8165     EVT-1           
                 SFR =   651012686.1253                   SFR =       8.8382E-04     SFR-1           

           TOTAL OUT =180261242572.1066             TOTAL OUT =         112.9918

            IN - OUT =         -68.5077              IN - OUT =      -5.6276E-09

 PERCENT DISCREPANCY =          -0.00     PERCENT DISCREPANCY =          -0.00




         TIME SUMMARY AT END OF TIME STEP   50 IN STRESS PERIOD    1
                    SECONDS     MINUTES      HOURS       DAYS        YEARS
                    -----------------------------------------------------------
   TIME STEP LENGTH 1.44676E+08 2.41127E+06  40188.      1674.5      4.5845    
 STRESS PERIOD TIME 1.57788E+09 2.62980E+07 4.38300E+05  18262.      50.000    
         TOTAL TIME 1.57788E+09 2.62980E+07 4.38300E+05  18262.      50.000    

 END OF FILE DETECTED IN OUTPUT CONTROL.
 CURRENT OUTPUT CONTROL SETTINGS WILL BE 
 REPEATED UNTIL THE END OF THE SIMULATION.

 OUTPUT CONTROL FOR STRESS PERIOD 2 IS REPEATED USING SETTINGS FROM A PREVIOUS STRESS PERIOD.


 STRESS PERIOD 2 IS TRANSIENT


 REUSING GHBS FROM LAST STRESS PERIOD

 REUSING RCHS FROM LAST STRESS PERIOD

 REUSING EVTS FROM LAST STRESS PERIOD

 REUSING SFRS FROM LAST STRESS PERIOD
 UBDSV1 SAVING           STO-SS ON UNIT   1022 AT TIME STEP      5, STRESS PERIOD      2
 UBDSV1 SAVING           STO-SY ON UNIT   1022 AT TIME STEP      5, STRESS PERIOD      2
 UBDSV1 SAVING     FLOW-JA-FACE ON UNIT   1022 AT TIME STEP      5, STRESS PERIOD      2
 UBDSV06 SAVING              WEL IN MODEL GWF_1            PACKAGE GWF_1           CONNECTED TO MODEL GWF_1            PACKAGE WEL-1            ON UNIT   1022 AT TIME STEP      5, STRESS PERIOD      2
 UBDSV06 SAVING              GHB IN MODEL GWF_1            PACKAGE GWF_1           CONNECTED TO MODEL GWF_1            PACKAGE GHB-1            ON UNIT   1022 AT TIME STEP      5, STRESS PERIOD      2
 UBDSV06 SAVING              RCH IN MODEL GWF_1            PACKAGE GWF_1           CONNECTED TO MODEL GWF_1            PACKAGE RCH-1            ON UNIT   1022 AT TIME STEP      5, STRESS PERIOD      2
 UBDSV06 SAVING              EVT IN MODEL GWF_1            PACKAGE GWF_1           CONNECTED TO MODEL GWF_1            PACKAGE EVT-1            ON UNIT   1022 AT TIME STEP      5, STRESS PERIOD      2
 UBDSV06 SAVING              SFR IN MODEL GWF_1            PACKAGE GWF_1           CONNECTED TO MODEL GWF_1            PACKAGE SFR-1            ON UNIT   1022 AT TIME STEP      5, STRESS PERIOD      2

              SFR (SFR-1)   PERIOD 2   STEP 5
 BOUNDARY        1  CELL              (1,1,1)   RATE     2.27027    
 BOUNDARY        2  CELL              (1,2,2)   RATE     3.45685    
 BOUNDARY        3  CELL              (1,3,3)   RATE     2.88787    
 BOUNDARY        4  CELL              (1,3,4)   RATE     2.60696    
 BOUNDARY        5  CELL              (1,4,5)   RATE     2.72090    
 BOUNDARY        6  CELL              (1,5,6)   RATE     2.00960    
 BOUNDARY        7  CELL              (1,6,6)   RATE     1.91716    
 BOUNDARY        8  CELL              (1,7,6)   RATE    0.241369    
 BOUNDARY        9  CELL              (1,8,6)   RATE     0.00000    
 BOUNDARY       10  CELL              (1,3,5)   RATE     2.00017    
 BOUNDARY       11  CELL              (1,3,6)   RATE     1.89314    
 BOUNDARY       12  CELL              (1,3,7)   RATE     1.59908    
 BOUNDARY       13  CELL              (1,4,8)   RATE     1.39664    
 BOUNDARY       14  CELL              (1,5,8)   RATE     0.00000    
 BOUNDARY       15  CELL              (1,6,8)   RATE     0.00000    
 BOUNDARY       16  CELL             (1,5,10)   RATE    0.905253    
 BOUNDARY       17  CELL              (1,5,9)   RATE     1.78348    
 BOUNDARY       18  CELL              (1,6,8)   RATE     1.22572    
 BOUNDARY       19  CELL              (1,6,8)   RATE     2.03898    
 BOUNDARY       20  CELL              (1,7,7)   RATE     2.46004    
 BOUNDARY       21  CELL              (1,8,7)   RATE     1.58653    
 BOUNDARY       22  CELL              (1,8,6)   RATE     0.00000    
 BOUNDARY       23  CELL              (1,9,6)   RATE     0.00000    
 BOUNDARY       24  CELL             (1,10,7)   RATE     0.00000    
 BOUNDARY       25  CELL             (1,11,7)   RATE     0.00000    
 BOUNDARY       26  CELL             (1,12,7)   RATE     0.00000    
 BOUNDARY       27  CELL             (1,13,7)   RATE   -3.558261E-03
 BOUNDARY       28  CELL             (1,14,9)   RATE     3.26930    
 BOUNDARY       29  CELL             (1,13,8)   RATE     7.18237    
 BOUNDARY       30  CELL             (1,13,7)   RATE     14.6399    
 BOUNDARY       31  CELL             (1,13,6)   RATE     14.8059    
 BOUNDARY       32  CELL             (1,13,5)   RATE     14.1037    
 BOUNDARY       33  CELL             (1,13,4)   RATE     10.2991    
 BOUNDARY       34  CELL             (1,13,3)   RATE     5.22426    
 BOUNDARY       35  CELL             (1,13,2)   RATE    0.839117    
 BOUNDARY       36  CELL             (1,13,1)   RATE    0.591317    

 UBDSV06 SAVING     FLOW-JA-FACE IN MODEL GWF_1            PACKAGE SFR-1           CONNECTED TO MODEL GWF_1            PACKAGE SFR-1            ON UNIT   1019 AT TIME STEP      5, STRESS PERIOD      2
 UBDSV06 SAVING              GWF IN MODEL GWF_1            PACKAGE SFR-1           CONNECTED TO MODEL GWF_1            PACKAGE GWF_1            ON UNIT   1019 AT TIME STEP      5, STRESS PERIOD      2
 UBDSV06 SAVING       EXT-INFLOW IN MODEL GWF_1            PACKAGE SFR-1           CONNECTED TO MODEL GWF_1            PACKAGE SFR-1            ON UNIT   1019 AT TIME STEP      5, STRESS PERIOD      2
 UBDSV06 SAVING         RAINFALL IN MODEL GWF_1            PACKAGE SFR-1           CONNECTED TO MODEL GWF_1            PACKAGE SFR-1            ON UNIT   1019 AT TIME STEP      5, STRESS PERIOD      2
 UBDSV06 SAVING           RUNOFF IN MODEL GWF_1            PACKAGE SFR-1           CONNECTED TO MODEL GWF_1            PACKAGE SFR-1            ON UNIT   1019 AT TIME STEP      5, STRESS PERIOD      2
 UBDSV06 SAVING      EVAPORATION IN MODEL GWF_1            PACKAGE SFR-1           CONNECTED TO MODEL GWF_1            PACKAGE SFR-1            ON UNIT   1019 AT TIME STEP      5, STRESS PERIOD      2
 UBDSV06 SAVING      EXT-OUTFLOW IN MODEL GWF_1            PACKAGE SFR-1           CONNECTED TO MODEL GWF_1            PACKAGE SFR-1            ON UNIT   1019 AT TIME STEP      5, STRESS PERIOD      2
1
  HEAD IN LAYER   1 AT END OF TIME STEP   5 IN STRESS PERIOD    2
  ---------------------------------------------------------------------------

            1           2           3           4           5           6           7           8           9          10
 ........................................................................................................................
   1    1054.       1032.      1.0000E+30  1.0000E+30  1.0000E+30  1.0000E+30  1.0000E+30  1.0000E+30  1.0000E+30  1.0000E+30
   2    1034.       1013.       993.5      1.0000E+30  1.0000E+30   980.7       983.0       983.8      1.0000E+30  1.0000E+30
   3   1.0000E+30   989.8       979.5       971.2       970.1       972.9       977.8       977.1      1.0000E+30  1.0000E+30
   4    969.8       969.5       965.5       959.3       957.7       957.4       962.6       972.0       972.0      1.0000E+30
   5    961.3       954.7       950.9       949.0       950.0       953.2       955.7       960.4       968.3       978.7    
   6    951.6       944.2       940.3       941.0       943.8       949.0       953.3       958.5       963.7       976.6    
   7    946.2       938.5       934.7       936.8       940.8       946.4       952.3       955.1       962.9      1.0000E+30
   8   1.0000E+30   938.8       935.2       938.0       942.6       947.9       953.1       956.5       965.7      1.0000E+30
   9   1.0000E+30   946.8       943.6       946.2       950.3       954.8       958.9       964.1       974.1      1.0000E+30
  10   1.0000E+30   960.9       958.6       959.9       962.5       966.3       970.0       976.4       986.0       991.2    
  11   1.0000E+30   978.2       978.5       976.4       978.2       981.5       985.1       992.0       999.4      1.0000E+30
  12    992.8       992.4       994.5       993.1       995.5       999.5       1004.       1013.       1019.      1.0000E+30
  13    992.6       997.6       1003.       1008.       1013.       1019.       1026.       1033.       1034.      1.0000E+30
  14   1.0000E+30   1001.       1005.       1009.       1014.       1020.       1026.       1033.       1038.      1.0000E+30
  15   1.0000E+30  1.0000E+30   1008.       1011.       1014.       1018.      1.0000E+30  1.0000E+30  1.0000E+30  1.0000E+30

 HEAD WILL BE SAVED ON UNIT 1021 AT END OF TIME STEP    5, STRESS PERIOD    2



 SFR (SFR-1) FLOWS   PERIOD      2   STEP        5
 ----------------------------------------------------------------------------------------------------------------------------------------------------
 REACH  REACH                 EXTERNAL      REACH       REACH       REACH       REACH       REACH       REACH     EXTERNAL      REACH      PERCENT   
  NO.   (LAYER,ROW,COLUMN)     INFLOW      INFLOW     RAINFALL     RUNOFF      LEAKAGE   EVAPORATION   OUTFLOW     OUTFLOW    IN - OUT   DIFFERENCE  
 ----------------------------------------------------------------------------------------------------------------------------------------------------
      1 (1,1,1)                25.00       0.000       0.000       0.000      -2.270       0.000      -22.73       0.000       0.000       0.000     
      2 (1,2,2)                0.000       22.73       0.000       0.000      -3.457       0.000      -19.27       0.000       0.000       0.000     
      3 (1,3,3)                0.000       19.27       0.000       0.000      -2.888       0.000      -16.39       0.000       0.000       0.000     
      4 (1,3,4)                0.000       16.39       0.000       0.000      -2.607       0.000      -13.78       0.000       0.000       0.000     
      5 (1,4,5)                0.000       6.889       0.000       0.000      -2.721       0.000      -4.168       0.000       0.000       0.000     
      6 (1,5,6)                0.000       4.168       0.000       0.000      -2.010       0.000      -2.159       0.000       0.000       0.000     
      7 (1,6,6)                0.000       2.159       0.000       0.000      -1.917       0.000     -0.2414       0.000       0.000       0.000     
      8 (1,7,6)                0.000      0.2414       0.000       0.000     -0.2414       0.000       0.000       0.000       0.000       0.000     
      9 (1,8,6)                0.000       0.000       0.000       0.000       0.000       0.000       0.000       0.000       0.000       0.000     
     10 (1,3,5)                0.000       6.889       0.000       0.000      -2.000       0.000      -4.889       0.000       0.000       0.000     
     11 (1,3,6)                0.000       4.889       0.000       0.000      -1.893       0.000      -2.996       0.000       0.000       0.000     
     12 (1,3,7)                0.000       2.996       0.000       0.000      -1.599       0.000      -1.397       0.000       0.000       0.000     
     13 (1,4,8)                0.000       1.397       0.000       0.000      -1.397       0.000       0.000       0.000       0.000       0.000     
     14 (1,5,8)                0.000       0.000       0.000       0.000       0.000       0.000       0.000       0.000       0.000       0.000     
     15 (1,6,8)                0.000       0.000       0.000       0.000       0.000       0.000       0.000       0.000       0.000       0.000     
     16 (1,5,10)               10.00       0.000       0.000       0.000     -0.9053       0.000      -9.095       0.000       0.000       0.000     
     17 (1,5,9)                0.000       9.095       0.000       0.000      -1.783       0.000      -7.311       0.000       0.000       0.000     
     18 (1,6,8)                0.000       7.311       0.000       0.000      -1.226       0.000      -6.086       0.000       0.000       0.000     
     19 (1,6,8)                0.000       6.086       0.000       0.000      -2.039       0.000      -4.047       0.000       0.000       0.000     
     20 (1,7,7)                0.000       4.047       0.000       0.000      -2.460       0.000      -1.587       0.000       0.000       0.000     
     21 (1,8,7)                0.000       1.587       0.000       0.000      -1.587       0.000       0.000       0.000       0.000       0.000     
     22 (1,8,6)                0.000       0.000       0.000       0.000       0.000       0.000       0.000       0.000       0.000       0.000     
     23 (1,9,6)                0.000       0.000       0.000       0.000       0.000       0.000       0.000       0.000       0.000       0.000     
     24 (1,10,7)               0.000       0.000       0.000       0.000       0.000       0.000       0.000       0.000       0.000       0.000     
     25 (1,11,7)               0.000       0.000       0.000       0.000       0.000       0.000       0.000       0.000       0.000       0.000     
     26 (1,12,7)               0.000       0.000       0.000       0.000       0.000       0.000       0.000       0.000       0.000       0.000     
     27 (1,13,7)               0.000       0.000       0.000       0.000      0.3558E-02   0.000     -0.3558E-02   0.000       0.000       0.000     
     28 (1,14,9)               150.0       0.000       0.000       0.000      -3.269       0.000      -146.7       0.000       0.000       0.000     
     29 (1,13,8)               0.000       146.7       0.000       0.000      -7.182       0.000      -139.5       0.000       0.000       0.000     
     30 (1,13,7)               0.000       139.5       0.000       0.000      -14.64       0.000      -124.9       0.000       0.000       0.000     
     31 (1,13,6)               0.000       124.9       0.000       0.000      -14.81       0.000      -110.1       0.000       0.000       0.000     
     32 (1,13,5)               0.000       110.1       0.000       0.000      -14.10       0.000      -96.00       0.000       0.000       0.000     
     33 (1,13,4)               0.000       96.00       0.000       0.000      -10.30       0.000      -85.70       0.000       0.000       0.000     
     34 (1,13,3)               0.000       85.70       0.000       0.000      -5.224       0.000      -80.48       0.000       0.000       0.000     
     35 (1,13,2)               0.000       80.48       0.000       0.000     -0.8391       0.000      -79.64       0.000       0.000       0.000     
     36 (1,13,1)               0.000       79.64       0.000       0.000     -0.5913       0.000       0.000      -79.05       0.000       0.000     


  SFR-1 BUDGET FOR ENTIRE MODEL AT END OF TIME STEP    5, STRESS PERIOD   2
  ------------------------------------------------------------------------------

     CUMULATIVE SFR-1      L**3       RATES FOR THIS TIME STEP      L**3/T
     ------------------                 ------------------------

           IN:                                      IN:
           ---                                      ---
          EXT-INFLOW =293438956672.2705            EXT-INFLOW =         185.0000
            RAINFALL =           0.0000              RAINFALL =           0.0000
              RUNOFF =           0.0000                RUNOFF =           0.0000
                 GWF =   651028568.3291                   GWF =       3.5583E-03
         EVAPORATION =           0.0000           EVAPORATION =           0.0000
         EXT-OUTFLOW =           0.0000           EXT-OUTFLOW =           0.0000

            TOTAL IN =294089985240.5996              TOTAL IN =         185.0036

          OUT:                                     OUT:
          ----                                     ----
          EXT-INFLOW =           0.0000            EXT-INFLOW =           0.0000
            RAINFALL =           0.0000              RAINFALL =           0.0000
              RUNOFF =           0.0000                RUNOFF =           0.0000
                 GWF =147067922309.9562                   GWF =         105.9549
         EVAPORATION =           0.0000           EVAPORATION =           0.0000
         EXT-OUTFLOW =147022062930.6434           EXT-OUTFLOW =          79.0487

           TOTAL OUT =294089985240.5996             TOTAL OUT =         185.0036

            IN - OUT =           0.0000              IN - OUT =      -2.8422E-14

 PERCENT DISCREPANCY =           0.00     PERCENT DISCREPANCY =          -0.00



  VOLUME BUDGET FOR ENTIRE MODEL AT END OF TIME STEP    5, STRESS PERIOD   2
  ---------------------------------------------------------------------------------------------------

     CUMULATIVE VOLUME      L**3       RATES FOR THIS TIME STEP      L**3/T          PACKAGE NAME    
     ------------------                 ------------------------                     ----------------

           IN:                                      IN:
           ---                                      ---
              STO-SS =   258094920.9897                STO-SS =       8.0793E-03     STORAGE         
              STO-SY = 30593349178.9106                STO-SY =           0.9286     STORAGE         
                 WEL =           0.0000                   WEL =           0.0000     WEL-1           
                 GHB =   405707596.7636                   GHB =           0.2568     GHB-1           
                 RCH =  2845168262.3291                   RCH =           1.7938     RCH-1           
                 EVT =           0.0000                   EVT =           0.0000     EVT-1           
                 SFR =147067922539.2715                   SFR =         105.9549     SFR-1           

            TOTAL IN =181170242498.2645              TOTAL IN =         108.9422

          OUT:                                     OUT:
          ----                                     ----
              STO-SS =     5398776.6641                STO-SS =           0.6640     STORAGE         
              STO-SY =   796315101.2541                STO-SY =          95.2394     STORAGE         
                 WEL =157788000000.0000                   WEL =           0.0000     WEL-1           
                 GHB =   284960620.8308                   GHB =           0.1746     GHB-1           
                 RCH =           0.0000                   RCH =           0.0000     RCH-1           
                 EVT = 21644539766.0263                   EVT =          12.8607     EVT-1           
                 SFR =   651028302.7419                   SFR =       3.5583E-03     SFR-1           

           TOTAL OUT =181170242567.5171             TOTAL OUT =         108.9422

            IN - OUT =         -69.2525              IN - OUT =      -1.0455E-07

 PERCENT DISCREPANCY =          -0.00     PERCENT DISCREPANCY =          -0.00




         TIME SUMMARY AT END OF TIME STEP    5 IN STRESS PERIOD    2
                    SECONDS     MINUTES      HOURS       DAYS        YEARS
                    -----------------------------------------------------------
   TIME STEP LENGTH 1.98484E+06  33081.      551.34      22.973     6.28958E-02
 STRESS PERIOD TIME 8.27652E+06 1.37942E+05  2299.0      95.793     0.26227    
         TOTAL TIME 1.58616E+09 2.64359E+07 4.40599E+05  18358.      50.262    
 UBDSV1 SAVING           STO-SS ON UNIT   1022 AT TIME STEP     10, STRESS PERIOD      2
 UBDSV1 SAVING           STO-SY ON UNIT   1022 AT TIME STEP     10, STRESS PERIOD      2
 UBDSV1 SAVING     FLOW-JA-FACE ON UNIT   1022 AT TIME STEP     10, STRESS PERIOD      2
 UBDSV06 SAVING              WEL IN MODEL GWF_1            PACKAGE GWF_1           CONNECTED TO MODEL GWF_1            PACKAGE WEL-1            ON UNIT   1022 AT TIME STEP     10, STRESS PERIOD      2
 UBDSV06 SAVING              GHB IN MODEL GWF_1            PACKAGE GWF_1           CONNECTED TO MODEL GWF_1            PACKAGE GHB-1            ON UNIT   1022 AT TIME STEP     10, STRESS PERIOD      2
 UBDSV06 SAVING              RCH IN MODEL GWF_1            PACKAGE GWF_1           CONNECTED TO MODEL GWF_1            PACKAGE RCH-1            ON UNIT   1022 AT TIME STEP     10, STRESS PERIOD      2
 UBDSV06 SAVING              EVT IN MODEL GWF_1            PACKAGE GWF_1           CONNECTED TO MODEL GWF_1            PACKAGE EVT-1            ON UNIT   1022 AT TIME STEP     10, STRESS PERIOD      2
 UBDSV06 SAVING              SFR IN MODEL GWF_1            PACKAGE GWF_1           CONNECTED TO MODEL GWF_1            PACKAGE SFR-1            ON UNIT   1022 AT TIME STEP     10, STRESS PERIOD      2

              SFR (SFR-1)   PERIOD 2   STEP 10
 BOUNDARY        1  CELL              (1,1,1)   RATE     2.27027    
 BOUNDARY        2  CELL              (1,2,2)   RATE     3.45685    
 BOUNDARY        3  CELL              (1,3,3)   RATE     2.88787    
 BOUNDARY        4  CELL              (1,3,4)   RATE     2.60696    
 BOUNDARY        5  CELL              (1,4,5)   RATE     2.72090    
 BOUNDARY        6  CELL              (1,5,6)   RATE     2.00960    
 BOUNDARY        7  CELL              (1,6,6)   RATE     1.91716    
 BOUNDARY        8  CELL              (1,7,6)   RATE    0.241369    
 BOUNDARY        9  CELL              (1,8,6)   RATE     0.00000    
 BOUNDARY       10  CELL              (1,3,5)   RATE     2.00017    
 BOUNDARY       11  CELL              (1,3,6)   RATE     1.89314    
 BOUNDARY       12  CELL              (1,3,7)   RATE     1.59908    
 BOUNDARY       13  CELL              (1,4,8)   RATE     1.39664    
 BOUNDARY       14  CELL              (1,5,8)   RATE     0.00000    
 BOUNDARY       15  CELL              (1,6,8)   RATE     0.00000    
 BOUNDARY       16  CELL             (1,5,10)   RATE    0.905253    
 BOUNDARY       17  CELL              (1,5,9)   RATE     1.78348    
 BOUNDARY       18  CELL              (1,6,8)   RATE     1.22572    
 BOUNDARY       19  CELL              (1,6,8)   RATE     2.03898    
 BOUNDARY       20  CELL              (1,7,7)   RATE     2.46004    
 BOUNDARY       21  CELL              (1,8,7)   RATE     1.58653    
 BOUNDARY       22  CELL              (1,8,6)   RATE     0.00000    
 BOUNDARY       23  CELL              (1,9,6)   RATE     0.00000    
 BOUNDARY       24  CELL             (1,10,7)   RATE     0.00000    
 BOUNDARY       25  CELL             (1,11,7)   RATE     0.00000    
 BOUNDARY       26  CELL             (1,12,7)   RATE     0.00000    
 BOUNDARY       27  CELL             (1,13,7)   RATE   -2.610594E-02
 BOUNDARY       28  CELL             (1,14,9)   RATE     3.26763    
 BOUNDARY       29  CELL             (1,13,8)   RATE     7.10253    
 BOUNDARY       30  CELL             (1,13,7)   RATE     14.0834    
 BOUNDARY       31  CELL             (1,13,6)   RATE     13.9257    
 BOUNDARY       32  CELL             (1,13,5)   RATE     12.8777    
 BOUNDARY       33  CELL             (1,13,4)   RATE     9.20788    
 BOUNDARY       34  CELL             (1,13,3)   RATE     4.69354    
 BOUNDARY       35  CELL             (1,13,2)   RATE    0.779847    
 BOUNDARY       36  CELL             (1,13,1)   RATE    0.598617    

 UBDSV06 SAVING     FLOW-JA-FACE IN MODEL GWF_1            PACKAGE SFR-1           CONNECTED TO MODEL GWF_1            PACKAGE SFR-1            ON UNIT   1019 AT TIME STEP     10, STRESS PERIOD      2
 UBDSV06 SAVING              GWF IN MODEL GWF_1            PACKAGE SFR-1           CONNECTED TO MODEL GWF_1            PACKAGE GWF_1            ON UNIT   1019 AT TIME STEP     10, STRESS PERIOD      2
 UBDSV06 SAVING       EXT-INFLOW IN MODEL GWF_1            PACKAGE SFR-1           CONNECTED TO MODEL GWF_1            PACKAGE SFR-1            ON UNIT   1019 AT TIME STEP     10, STRESS PERIOD      2
 UBDSV06 SAVING         RAINFALL IN MODEL GWF_1            PACKAGE SFR-1           CONNECTED TO MODEL GWF_1            PACKAGE SFR-1            ON UNIT   1019 AT TIME STEP     10, STRESS PERIOD      2
 UBDSV06 SAVING           RUNOFF IN MODEL GWF_1            PACKAGE SFR-1           CONNECTED TO MODEL GWF_1            PACKAGE SFR-1            ON UNIT   1019 AT TIME STEP     10, STRESS PERIOD      2
 UBDSV06 SAVING      EVAPORATION IN MODEL GWF_1            PACKAGE SFR-1           CONNECTED TO MODEL GWF_1            PACKAGE SFR-1            ON UNIT   1019 AT TIME STEP     10, STRESS PERIOD      2
 UBDSV06 SAVING      EXT-OUTFLOW IN MODEL GWF_1            PACKAGE SFR-1           CONNECTED TO MODEL GWF_1            PACKAGE SFR-1            ON UNIT   1019 AT TIME STEP     10, STRESS PERIOD      2
1
  HEAD IN LAYER   1 AT END OF TIME STEP  10 IN STRESS PERIOD    2
  ---------------------------------------------------------------------------

            1           2           3           4           5           6           7           8           9          10
 ........................................................................................................................
   1    1054.       1032.      1.0000E+30  1.0000E+30  1.0000E+30  1.0000E+30  1.0000E+30  1.0000E+30  1.0000E+30  1.0000E+30
   2    1034.       1013.       993.5      1.0000E+30  1.0000E+30   980.5       982.9       983.6      1.0000E+30  1.0000E+30
   3   1.0000E+30   989.8       980.2       972.7       971.5       973.7       978.0       977.0      1.0000E+30  1.0000E+30
   4    969.6       969.7       967.1       962.4       961.0       960.0       963.7       972.3       971.8      1.0000E+30
   5    961.2       955.5       954.5       954.7       955.3       957.1       958.1       961.6       968.5       978.5    
   6    951.5       945.9       946.5       949.9       951.7       954.6       956.7       960.2       963.9       976.4    
   7    946.1       940.6       942.7       948.1       950.7       953.5       956.6       957.3       962.8      1.0000E+30
   8   1.0000E+30   940.6       943.7       950.3       953.2       955.7       958.2       957.9       965.6      1.0000E+30
   9   1.0000E+30   948.6       951.4       957.5       960.0       962.0       963.8       965.4       974.1      1.0000E+30
  10   1.0000E+30   962.4       964.5       968.4       970.1       972.0       973.9       977.7       986.1       991.2    
  11   1.0000E+30   978.9       981.6       981.6       983.0       985.2       987.6       992.8       999.5      1.0000E+30
  12    992.8       992.8       995.8       995.3       997.8       1001.       1005.       1014.       1019.      1.0000E+30
  13    992.6       997.7       1003.       1008.       1014.       1020.       1026.       1033.       1034.      1.0000E+30
  14   1.0000E+30   1001.       1005.       1009.       1014.       1020.       1026.       1033.       1038.      1.0000E+30
  15   1.0000E+30  1.0000E+30   1008.       1011.       1014.       1018.      1.0000E+30  1.0000E+30  1.0000E+30  1.0000E+30

 HEAD WILL BE SAVED ON UNIT 1021 AT END OF TIME STEP   10, STRESS PERIOD    2



 SFR (SFR-1) FLOWS   PERIOD      2   STEP       10
 ----------------------------------------------------------------------------------------------------------------------------------------------------
 REACH  REACH                 EXTERNAL      REACH       REACH       REACH       REACH       REACH       REACH     EXTERNAL      REACH      PERCENT   
  NO.   (LAYER,ROW,COLUMN)     INFLOW      INFLOW     RAINFALL     RUNOFF      LEAKAGE   EVAPORATION   OUTFLOW     OUTFLOW    IN - OUT   DIFFERENCE  
 ----------------------------------------------------------------------------------------------------------------------------------------------------
      1 (1,1,1)                25.00       0.000       0.000       0.000      -2.270       0.000      -22.73       0.000       0.000       0.000     
      2 (1,2,2)                0.000       22.73       0.000       0.000      -3.457       0.000      -19.27       0.000       0.000       0.000     
      3 (1,3,3)                0.000       19.27       0.000       0.000      -2.888       0.000      -16.39       0.000       0.000       0.000     
      4 (1,3,4)                0.000       16.39       0.000       0.000      -2.607       0.000      -13.78       0.000       0.000       0.000     
      5 (1,4,5)                0.000       6.889       0.000       0.000      -2.721       0.000      -4.168       0.000       0.000       0.000     
      6 (1,5,6)                0.000       4.168       0.000       0.000      -2.010       0.000      -2.159       0.000       0.000       0.000     
      7 (1,6,6)                0.000       2.159       0.000       0.000      -1.917       0.000     -0.2414       0.000       0.000       0.000     
      8 (1,7,6)                0.000      0.2414       0.000       0.000     -0.2414       0.000       0.000       0.000       0.000       0.000     
      9 (1,8,6)                0.000       0.000       0.000       0.000       0.000       0.000       0.000       0.000       0.000       0.000     
     10 (1,3,5)                0.000       6.889       0.000       0.000      -2.000       0.000      -4.889       0.000       0.000       0.000     
     11 (1,3,6)                0.000       4.889       0.000       0.000      -1.893       0.000      -2.996       0.000       0.000       0.000     
     12 (1,3,7)                0.000       2.996       0.000       0.000      -1.599       0.000      -1.397       0.000       0.000       0.000     
     13 (1,4,8)                0.000       1.397       0.000       0.000      -1.397       0.000       0.000       0.000       0.000       0.000     
     14 (1,5,8)                0.000       0.000       0.000       0.000       0.000       0.000       0.000       0.000       0.000       0.000     
     15 (1,6,8)                0.000       0.000       0.000       0.000       0.000       0.000       0.000       0.000       0.000       0.000     
     16 (1,5,10)               10.00       0.000       0.000       0.000     -0.9053       0.000      -9.095       0.000       0.000       0.000     
     17 (1,5,9)                0.000       9.095       0.000       0.000      -1.783       0.000      -7.311       0.000       0.000       0.000     
     18 (1,6,8)                0.000       7.311       0.000       0.000      -1.226       0.000      -6.086       0.000       0.000       0.000     
     19 (1,6,8)                0.000       6.086       0.000       0.000      -2.039       0.000      -4.047       0.000       0.000       0.000     
     20 (1,7,7)                0.000       4.047       0.000       0.000      -2.460       0.000      -1.587       0.000       0.000       0.000     
     21 (1,8,7)                0.000       1.587       0.000       0.000      -1.587       0.000       0.000       0.000       0.000       0.000     
     22 (1,8,6)                0.000       0.000       0.000       0.000       0.000       0.000       0.000       0.000       0.000       0.000     
     23 (1,9,6)                0.000       0.000       0.000       0.000       0.000       0.000       0.000       0.000       0.000       0.000     
     24 (1,10,7)               0.000       0.000       0.000       0.000       0.000       0.000       0.000       0.000       0.000       0.000     
     25 (1,11,7)               0.000       0.000       0.000       0.000       0.000       0.000       0.000       0.000       0.000       0.000     
     26 (1,12,7)               0.000       0.000       0.000       0.000       0.000       0.000       0.000       0.000       0.000       0.000     
     27 (1,13,7)               0.000       0.000       0.000       0.000      0.2611E-01   0.000     -0.2611E-01   0.000       0.000       0.000     
     28 (1,14,9)               150.0       0.000       0.000       0.000      -3.268       0.000      -146.7       0.000       0.000       0.000     
     29 (1,13,8)               0.000       146.7       0.000       0.000      -7.103       0.000      -139.6       0.000       0.000       0.000     
     30 (1,13,7)               0.000       139.6       0.000       0.000      -14.08       0.000      -125.5       0.000       0.000       0.000     
     31 (1,13,6)               0.000       125.6       0.000       0.000      -13.93       0.000      -111.6       0.000       0.000       0.000     
     32 (1,13,5)               0.000       111.6       0.000       0.000      -12.88       0.000      -98.77       0.000       0.000       0.000     
     33 (1,13,4)               0.000       98.77       0.000       0.000      -9.208       0.000      -89.56       0.000       0.000       0.000     
     34 (1,13,3)               0.000       89.56       0.000       0.000      -4.694       0.000      -84.87       0.000       0.000       0.000     
     35 (1,13,2)               0.000       84.87       0.000       0.000     -0.7798       0.000      -84.09       0.000       0.000       0.000     
     36 (1,13,1)               0.000       84.09       0.000       0.000     -0.5986       0.000       0.000      -83.49       0.000       0.000     


  SFR-1 BUDGET FOR ENTIRE MODEL AT END OF TIME STEP   10, STRESS PERIOD   2
  ------------------------------------------------------------------------------

     CUMULATIVE SFR-1      L**3       RATES FOR THIS TIME STEP      L**3/T
     ------------------                 ------------------------

           IN:                                      IN:
           ---                                      ---
          EXT-INFLOW =295904899804.5289            EXT-INFLOW =         185.0000
            RAINFALL =           0.0000              RAINFALL =           0.0000
              RUNOFF =           0.0000                RUNOFF =           0.0000
                 GWF =   651238889.4983                   GWF =       2.6106E-02
         EVAPORATION =           0.0000           EVAPORATION =           0.0000
         EXT-OUTFLOW =           0.0000           EXT-OUTFLOW =           0.0000

            TOTAL IN =296556138694.0272              TOTAL IN =         185.0261

          OUT:                                     OUT:
          ----                                     ----
          EXT-INFLOW =           0.0000            EXT-INFLOW =           0.0000
            RAINFALL =           0.0000              RAINFALL =           0.0000
              RUNOFF =           0.0000                RUNOFF =           0.0000
                 GWF =148446342892.7092                   GWF =         101.5369
         EVAPORATION =           0.0000           EVAPORATION =           0.0000
         EXT-OUTFLOW =148109795801.3180           EXT-OUTFLOW =          83.4892

           TOTAL OUT =296556138694.0272             TOTAL OUT =         185.0261

            IN - OUT =       6.1035E-05              IN - OUT =           0.0000

 PERCENT DISCREPANCY =           0.00     PERCENT DISCREPANCY =           0.00



  VOLUME BUDGET FOR ENTIRE MODEL AT END OF TIME STEP   10, STRESS PERIOD   2
  ---------------------------------------------------------------------------------------------------

     CUMULATIVE VOLUME      L**3       RATES FOR THIS TIME STEP      L**3/T          PACKAGE NAME    
     ------------------                 ------------------------                     ----------------

           IN:                                      IN:
           ---                                      ---
              STO-SS =   258158901.7177                STO-SS =       3.1842E-03     STORAGE         
              STO-SY = 30600769906.3664                STO-SY =           0.3713     STORAGE         
                 WEL =           0.0000                   WEL =           0.0000     WEL-1           
                 GHB =   409131143.4715                   GHB =           0.2568     GHB-1           
                 RCH =  2869077913.6453                   RCH =           1.7938     RCH-1           
                 EVT =           0.0000                   EVT =           0.0000     EVT-1           
                 SFR =148446343082.8199                   SFR =         101.5369     SFR-1           

            TOTAL IN =182583480948.0208              TOTAL IN =         103.9620

          OUT:                                     OUT:
          ----                                     ----
              STO-SS =    14282577.2875                STO-SS =           0.6629     STORAGE         
              STO-SY =  2025241416.5489                STO-SY =          90.0470     STORAGE         
                 WEL =157788000000.0000                   WEL =           0.0000     WEL-1           
                 GHB =   287296072.7793                   GHB =           0.1757     GHB-1           
                 RCH =           0.0000                   RCH =           0.0000     RCH-1           
                 EVT = 21817422326.6329                   EVT =          13.0503     EVT-1           
                 SFR =   651238623.7957                   SFR =       2.6106E-02     SFR-1           

           TOTAL OUT =182583481017.0443             TOTAL OUT =         103.9620

            IN - OUT =         -69.0234              IN - OUT =       8.3828E-08

 PERCENT DISCREPANCY =          -0.00     PERCENT DISCREPANCY =           0.00




         TIME SUMMARY AT END OF TIME STEP   10 IN STRESS PERIOD    2
                    SECONDS     MINUTES      HOURS       DAYS        YEARS
                    -----------------------------------------------------------
   TIME STEP LENGTH 3.19661E+06  53277.      887.95      36.998     0.10129    
 STRESS PERIOD TIME 2.16059E+07 3.60099E+05  6001.7      250.07     0.68465    
         TOTAL TIME 1.59949E+09 2.66581E+07 4.44302E+05  18513.      50.685    
 UBDSV1 SAVING           STO-SS ON UNIT   1022 AT TIME STEP     15, STRESS PERIOD      2
 UBDSV1 SAVING           STO-SY ON UNIT   1022 AT TIME STEP     15, STRESS PERIOD      2
 UBDSV1 SAVING     FLOW-JA-FACE ON UNIT   1022 AT TIME STEP     15, STRESS PERIOD      2
 UBDSV06 SAVING              WEL IN MODEL GWF_1            PACKAGE GWF_1           CONNECTED TO MODEL GWF_1            PACKAGE WEL-1            ON UNIT   1022 AT TIME STEP     15, STRESS PERIOD      2
 UBDSV06 SAVING              GHB IN MODEL GWF_1            PACKAGE GWF_1           CONNECTED TO MODEL GWF_1            PACKAGE GHB-1            ON UNIT   1022 AT TIME STEP     15, STRESS PERIOD      2
 UBDSV06 SAVING              RCH IN MODEL GWF_1            PACKAGE GWF_1           CONNECTED TO MODEL GWF_1            PACKAGE RCH-1            ON UNIT   1022 AT TIME STEP     15, STRESS PERIOD      2
 UBDSV06 SAVING              EVT IN MODEL GWF_1            PACKAGE GWF_1           CONNECTED TO MODEL GWF_1            PACKAGE EVT-1            ON UNIT   1022 AT TIME STEP     15, STRESS PERIOD      2
 UBDSV06 SAVING              SFR IN MODEL GWF_1            PACKAGE GWF_1           CONNECTED TO MODEL GWF_1            PACKAGE SFR-1            ON UNIT   1022 AT TIME STEP     15, STRESS PERIOD      2

              SFR (SFR-1)   PERIOD 2   STEP 15
 BOUNDARY        1  CELL              (1,1,1)   RATE     2.27027    
 BOUNDARY        2  CELL              (1,2,2)   RATE     3.45685    
 BOUNDARY        3  CELL              (1,3,3)   RATE     2.88787    
 BOUNDARY        4  CELL              (1,3,4)   RATE     2.60696    
 BOUNDARY        5  CELL              (1,4,5)   RATE     2.72090    
 BOUNDARY        6  CELL              (1,5,6)   RATE     2.00960    
 BOUNDARY        7  CELL              (1,6,6)   RATE     1.91716    
 BOUNDARY        8  CELL              (1,7,6)   RATE    0.241369    
 BOUNDARY        9  CELL              (1,8,6)   RATE     0.00000    
 BOUNDARY       10  CELL              (1,3,5)   RATE     2.00017    
 BOUNDARY       11  CELL              (1,3,6)   RATE     1.89314    
 BOUNDARY       12  CELL              (1,3,7)   RATE     1.59908    
 BOUNDARY       13  CELL              (1,4,8)   RATE     1.39664    
 BOUNDARY       14  CELL              (1,5,8)   RATE     0.00000    
 BOUNDARY       15  CELL              (1,6,8)   RATE     0.00000    
 BOUNDARY       16  CELL             (1,5,10)   RATE    0.905253    
 BOUNDARY       17  CELL              (1,5,9)   RATE     1.78348    
 BOUNDARY       18  CELL              (1,6,8)   RATE     1.22572    
 BOUNDARY       19  CELL              (1,6,8)   RATE     2.03898    
 BOUNDARY       20  CELL              (1,7,7)   RATE     2.46004    
 BOUNDARY       21  CELL              (1,8,7)   RATE     1.58653    
 BOUNDARY       22  CELL              (1,8,6)   RATE     0.00000    
 BOUNDARY       23  CELL              (1,9,6)   RATE     0.00000    
 BOUNDARY       24  CELL             (1,10,7)   RATE     0.00000    
 BOUNDARY       25  CELL             (1,11,7)   RATE     0.00000    
 BOUNDARY       26  CELL             (1,12,7)   RATE     0.00000    
 BOUNDARY       27  CELL             (1,13,7)   RATE   -7.645691E-02
 BOUNDARY       28  CELL             (1,14,9)   RATE     3.25257    
 BOUNDARY       29  CELL             (1,13,8)   RATE     6.85789    
 BOUNDARY       30  CELL             (1,13,7)   RATE     12.8892    
 BOUNDARY       31  CELL             (1,13,6)   RATE     12.3955    
 BOUNDARY       32  CELL             (1,13,5)   RATE     11.0494    
 BOUNDARY       33  CELL             (1,13,4)   RATE     7.62078    
 BOUNDARY       34  CELL             (1,13,3)   RATE     3.74616    
 BOUNDARY       35  CELL             (1,13,2)   RATE    0.610747    
 BOUNDARY       36  CELL             (1,13,1)   RATE    0.587261    

 UBDSV06 SAVING     FLOW-JA-FACE IN MODEL GWF_1            PACKAGE SFR-1           CONNECTED TO MODEL GWF_1            PACKAGE SFR-1            ON UNIT   1019 AT TIME STEP     15, STRESS PERIOD      2
 UBDSV06 SAVING              GWF IN MODEL GWF_1            PACKAGE SFR-1           CONNECTED TO MODEL GWF_1            PACKAGE GWF_1            ON UNIT   1019 AT TIME STEP     15, STRESS PERIOD      2
 UBDSV06 SAVING       EXT-INFLOW IN MODEL GWF_1            PACKAGE SFR-1           CONNECTED TO MODEL GWF_1            PACKAGE SFR-1            ON UNIT   1019 AT TIME STEP     15, STRESS PERIOD      2
 UBDSV06 SAVING         RAINFALL IN MODEL GWF_1            PACKAGE SFR-1           CONNECTED TO MODEL GWF_1            PACKAGE SFR-1            ON UNIT   1019 AT TIME STEP     15, STRESS PERIOD      2
 UBDSV06 SAVING           RUNOFF IN MODEL GWF_1            PACKAGE SFR-1           CONNECTED TO MODEL GWF_1            PACKAGE SFR-1            ON UNIT   1019 AT TIME STEP     15, STRESS PERIOD      2
 UBDSV06 SAVING      EVAPORATION IN MODEL GWF_1            PACKAGE SFR-1           CONNECTED TO MODEL GWF_1            PACKAGE SFR-1            ON UNIT   1019 AT TIME STEP     15, STRESS PERIOD      2
 UBDSV06 SAVING      EXT-OUTFLOW IN MODEL GWF_1            PACKAGE SFR-1           CONNECTED TO MODEL GWF_1            PACKAGE SFR-1            ON UNIT   1019 AT TIME STEP     15, STRESS PERIOD      2
1
  HEAD IN LAYER   1 AT END OF TIME STEP  15 IN STRESS PERIOD    2
  ---------------------------------------------------------------------------

            1           2           3           4           5           6           7           8           9          10
 ........................................................................................................................
   1    1054.       1031.      1.0000E+30  1.0000E+30  1.0000E+30  1.0000E+30  1.0000E+30  1.0000E+30  1.0000E+30  1.0000E+30
   2    1034.       1013.       994.6      1.0000E+30  1.0000E+30   980.7       982.8       983.4      1.0000E+30  1.0000E+30
   3   1.0000E+30   990.9       983.0       976.7       975.9       977.1       979.8       977.5      1.0000E+30  1.0000E+30
   4    969.6       971.4       971.3       968.2       967.2       965.9       967.8       974.3       971.9      1.0000E+30
   5    961.4       958.8       961.0       962.6       963.0       964.0       963.9       965.8       970.6       978.8    
   6    951.8       950.8       955.4       959.6       961.0       962.8       963.4       965.4       966.0       976.3    
   7    946.5       946.7       953.5       959.3       961.1       962.8       964.3       963.3       963.1      1.0000E+30
   8   1.0000E+30   946.7       955.3       962.1       964.1       965.5       966.7       963.0       965.8      1.0000E+30
   9   1.0000E+30   954.2       962.0       968.3       970.1       971.2       971.9       969.9       974.5      1.0000E+30
  10   1.0000E+30   966.8       972.7       977.1       978.4       979.6       980.6       981.6       987.0       991.1    
  11   1.0000E+30   981.6       986.5       987.5       988.8       990.6       992.4       995.5       1000.      1.0000E+30
  12    993.1       993.9       997.9       998.4       1001.       1004.       1008.       1015.       1019.      1.0000E+30
  13    992.7       997.8       1003.       1009.       1014.       1020.       1026.       1033.       1034.      1.0000E+30
  14   1.0000E+30   1001.       1005.       1009.       1014.       1020.       1027.       1033.       1038.      1.0000E+30
  15   1.0000E+30  1.0000E+30   1008.       1011.       1014.       1018.      1.0000E+30  1.0000E+30  1.0000E+30  1.0000E+30

 HEAD WILL BE SAVED ON UNIT 1021 AT END OF TIME STEP   15, STRESS PERIOD    2



 SFR (SFR-1) FLOWS   PERIOD      2   STEP       15
 ----------------------------------------------------------------------------------------------------------------------------------------------------
 REACH  REACH                 EXTERNAL      REACH       REACH       REACH       REACH       REACH       REACH     EXTERNAL      REACH      PERCENT   
  NO.   (LAYER,ROW,COLUMN)     INFLOW      INFLOW     RAINFALL     RUNOFF      LEAKAGE   EVAPORATION   OUTFLOW     OUTFLOW    IN - OUT   DIFFERENCE  
 ----------------------------------------------------------------------------------------------------------------------------------------------------
      1 (1,1,1)                25.00       0.000       0.000       0.000      -2.270       0.000      -22.73       0.000       0.000       0.000     
      2 (1,2,2)                0.000       22.73       0.000       0.000      -3.457       0.000      -19.27       0.000       0.000       0.000     
      3 (1,3,3)                0.000       19.27       0.000       0.000      -2.888       0.000      -16.39       0.000       0.000       0.000     
      4 (1,3,4)                0.000       16.39       0.000       0.000      -2.607       0.000      -13.78       0.000       0.000       0.000     
      5 (1,4,5)                0.000       6.889       0.000       0.000      -2.721       0.000      -4.168       0.000       0.000       0.000     
      6 (1,5,6)                0.000       4.168       0.000       0.000      -2.010       0.000      -2.159       0.000       0.000       0.000     
      7 (1,6,6)                0.000       2.159       0.000       0.000      -1.917       0.000     -0.2414       0.000       0.000       0.000     
      8 (1,7,6)                0.000      0.2414       0.000       0.000     -0.2414       0.000       0.000       0.000       0.000       0.000     
      9 (1,8,6)                0.000       0.000       0.000       0.000       0.000       0.000       0.000       0.000       0.000       0.000     
     10 (1,3,5)                0.000       6.889       0.000       0.000      -2.000       0.000      -4.889       0.000       0.000       0.000     
     11 (1,3,6)                0.000       4.889       0.000       0.000      -1.893       0.000      -2.996       0.000       0.000       0.000     
     12 (1,3,7)                0.000       2.996       0.000       0.000      -1.599       0.000      -1.397       0.000       0.000       0.000     
     13 (1,4,8)                0.000       1.397       0.000       0.000      -1.397       0.000       0.000       0.000       0.000       0.000     
     14 (1,5,8)                0.000       0.000       0.000       0.000       0.000       0.000       0.000       0.000       0.000       0.000     
     15 (1,6,8)                0.000       0.000       0.000       0.000       0.000       0.000       0.000       0.000       0.000       0.000     
     16 (1,5,10)               10.00       0.000       0.000       0.000     -0.9053       0.000      -9.095       0.000       0.000       0.000     
     17 (1,5,9)                0.000       9.095       0.000       0.000      -1.783       0.000      -7.311       0.000       0.000       0.000     
     18 (1,6,8)                0.000       7.311       0.000       0.000      -1.226       0.000      -6.086       0.000       0.000       0.000     
     19 (1,6,8)                0.000       6.086       0.000       0.000      -2.039       0.000      -4.047       0.000       0.000       0.000     
     20 (1,7,7)                0.000       4.047       0.000       0.000      -2.460       0.000      -1.587       0.000       0.000       0.000     
     21 (1,8,7)                0.000       1.587       0.000       0.000      -1.587       0.000       0.000       0.000       0.000       0.000     
     22 (1,8,6)                0.000       0.000       0.000       0.000       0.000       0.000       0.000       0.000       0.000       0.000     
     23 (1,9,6)                0.000       0.000       0.000       0.000       0.000       0.000       0.000       0.000       0.000       0.000     
     24 (1,10,7)               0.000       0.000       0.000       0.000       0.000       0.000       0.000       0.000       0.000       0.000     
     25 (1,11,7)               0.000       0.000       0.000       0.000       0.000       0.000       0.000       0.000       0.000       0.000     
     26 (1,12,7)               0.000       0.000       0.000       0.000       0.000       0.000       0.000       0.000       0.000       0.000     
     27 (1,13,7)               0.000       0.000       0.000       0.000      0.7646E-01   0.000     -0.7646E-01   0.000       0.000       0.000     
     28 (1,14,9)               150.0       0.000       0.000       0.000      -3.253       0.000      -146.7       0.000       0.000       0.000     
     29 (1,13,8)               0.000       146.7       0.000       0.000      -6.858       0.000      -139.9       0.000       0.000       0.000     
     30 (1,13,7)               0.000       139.9       0.000       0.000      -12.89       0.000      -127.0       0.000       0.000       0.000     
     31 (1,13,6)               0.000       127.1       0.000       0.000      -12.40       0.000      -114.7       0.000       0.000       0.000     
     32 (1,13,5)               0.000       114.7       0.000       0.000      -11.05       0.000      -103.6       0.000       0.000       0.000     
     33 (1,13,4)               0.000       103.6       0.000       0.000      -7.621       0.000      -96.01       0.000       0.000       0.000     
     34 (1,13,3)               0.000       96.01       0.000       0.000      -3.746       0.000      -92.26       0.000       0.000       0.000     
     35 (1,13,2)               0.000       92.26       0.000       0.000     -0.6108       0.000      -91.65       0.000       0.000       0.000     
     36 (1,13,1)               0.000       91.65       0.000       0.000     -0.5873       0.000       0.000      -91.07       0.000       0.000     


  SFR-1 BUDGET FOR ENTIRE MODEL AT END OF TIME STEP   15, STRESS PERIOD   2
  ------------------------------------------------------------------------------

     CUMULATIVE SFR-1      L**3       RATES FOR THIS TIME STEP      L**3/T
     ------------------                 ------------------------

           IN:                                      IN:
           ---                                      ---
          EXT-INFLOW =299876325878.4623            EXT-INFLOW =         185.0000
            RAINFALL =           0.0000              RAINFALL =           0.0000
              RUNOFF =           0.0000                RUNOFF =           0.0000
                 GWF =   652449026.8038                   GWF =       7.6457E-02
         EVAPORATION =           0.0000           EVAPORATION =           0.0000
         EXT-OUTFLOW =           0.0000           EXT-OUTFLOW =           0.0000

            TOTAL IN =300528774905.2661              TOTAL IN =         185.0765

          OUT:                                     OUT:
          ----                                     ----
          EXT-INFLOW =           0.0000            EXT-INFLOW =           0.0000
            RAINFALL =           0.0000              RAINFALL =           0.0000
              RUNOFF =           0.0000                RUNOFF =           0.0000
                 GWF =150527015061.0424                   GWF =          94.0095
         EVAPORATION =           0.0000           EVAPORATION =           0.0000
         EXT-OUTFLOW =150001759844.2236           EXT-OUTFLOW =          91.0669

           TOTAL OUT =300528774905.2660             TOTAL OUT =         185.0765

            IN - OUT =       1.2207E-04              IN - OUT =           0.0000

 PERCENT DISCREPANCY =           0.00     PERCENT DISCREPANCY =           0.00



  VOLUME BUDGET FOR ENTIRE MODEL AT END OF TIME STEP   15, STRESS PERIOD   2
  ---------------------------------------------------------------------------------------------------

     CUMULATIVE VOLUME      L**3       RATES FOR THIS TIME STEP      L**3/T          PACKAGE NAME    
     ------------------                 ------------------------                     ----------------

           IN:                                      IN:
           ---                                      ---
              STO-SS =   258185503.9280                STO-SS =       6.3122E-04     STORAGE         
              STO-SY = 30603910592.6540                STO-SY =       7.6309E-02     STORAGE         
                 WEL =           0.0000                   WEL =           0.0000     WEL-1           
                 GHB =   414643464.7276                   GHB =           0.2567     GHB-1           
                 RCH =  2907584646.1864                   RCH =           1.7938     RCH-1           
                 EVT =           0.0000                   EVT =           0.0000     EVT-1           
                 SFR =150527014929.0805                   SFR =          94.0095     SFR-1           

            TOTAL IN =184711339136.5765              TOTAL IN =          96.1369

          OUT:                                     OUT:
          ----                                     ----
              STO-SS =    28070378.2755                STO-SS =           0.6276     STORAGE         
              STO-SY =  3849941859.3476                STO-SY =          81.8853     STORAGE         
                 WEL =157788000000.0000                   WEL =           0.0000     WEL-1           
                 GHB =   291096316.4971                   GHB =           0.1779     GHB-1           
                 RCH =           0.0000                   RCH =           0.0000     RCH-1           
                 EVT = 22101781885.7236                   EVT =          13.3697     EVT-1           
                 SFR =   652448761.1851                   SFR =       7.6457E-02     SFR-1           

           TOTAL OUT =184711339201.0289             TOTAL OUT =          96.1369

            IN - OUT =         -64.4524              IN - OUT =       2.8168E-07

 PERCENT DISCREPANCY =          -0.00     PERCENT DISCREPANCY =           0.00




         TIME SUMMARY AT END OF TIME STEP   15 IN STRESS PERIOD    2
                    SECONDS     MINUTES      HOURS       DAYS        YEARS
                    -----------------------------------------------------------
   TIME STEP LENGTH 5.14817E+06  85803.      1430.0      59.585     0.16314    
 STRESS PERIOD TIME 4.30731E+07 7.17885E+05  11965.      498.53      1.3649    
         TOTAL TIME 1.62095E+09 2.70159E+07 4.50265E+05  18761.      51.365    
 UBDSV1 SAVING           STO-SS ON UNIT   1022 AT TIME STEP     20, STRESS PERIOD      2
 UBDSV1 SAVING           STO-SY ON UNIT   1022 AT TIME STEP     20, STRESS PERIOD      2
 UBDSV1 SAVING     FLOW-JA-FACE ON UNIT   1022 AT TIME STEP     20, STRESS PERIOD      2
 UBDSV06 SAVING              WEL IN MODEL GWF_1            PACKAGE GWF_1           CONNECTED TO MODEL GWF_1            PACKAGE WEL-1            ON UNIT   1022 AT TIME STEP     20, STRESS PERIOD      2
 UBDSV06 SAVING              GHB IN MODEL GWF_1            PACKAGE GWF_1           CONNECTED TO MODEL GWF_1            PACKAGE GHB-1            ON UNIT   1022 AT TIME STEP     20, STRESS PERIOD      2
 UBDSV06 SAVING              RCH IN MODEL GWF_1            PACKAGE GWF_1           CONNECTED TO MODEL GWF_1            PACKAGE RCH-1            ON UNIT   1022 AT TIME STEP     20, STRESS PERIOD      2
 UBDSV06 SAVING              EVT IN MODEL GWF_1            PACKAGE GWF_1           CONNECTED TO MODEL GWF_1            PACKAGE EVT-1            ON UNIT   1022 AT TIME STEP     20, STRESS PERIOD      2
 UBDSV06 SAVING              SFR IN MODEL GWF_1            PACKAGE GWF_1           CONNECTED TO MODEL GWF_1            PACKAGE SFR-1            ON UNIT   1022 AT TIME STEP     20, STRESS PERIOD      2

              SFR (SFR-1)   PERIOD 2   STEP 20
 BOUNDARY        1  CELL              (1,1,1)   RATE     2.27027    
 BOUNDARY        2  CELL              (1,2,2)   RATE     3.45685    
 BOUNDARY        3  CELL              (1,3,3)   RATE     2.88787    
 BOUNDARY        4  CELL              (1,3,4)   RATE     2.60696    
 BOUNDARY        5  CELL              (1,4,5)   RATE     2.72090    
 BOUNDARY        6  CELL              (1,5,6)   RATE     2.00960    
 BOUNDARY        7  CELL              (1,6,6)   RATE     1.91716    
 BOUNDARY        8  CELL              (1,7,6)   RATE    0.241369    
 BOUNDARY        9  CELL              (1,8,6)   RATE     0.00000    
 BOUNDARY       10  CELL              (1,3,5)   RATE     2.00017    
 BOUNDARY       11  CELL              (1,3,6)   RATE     1.89314    
 BOUNDARY       12  CELL              (1,3,7)   RATE     1.59908    
 BOUNDARY       13  CELL              (1,4,8)   RATE     1.39664    
 BOUNDARY       14  CELL              (1,5,8)   RATE     0.00000    
 BOUNDARY       15  CELL              (1,6,8)   RATE     0.00000    
 BOUNDARY       16  CELL             (1,5,10)   RATE    0.905253    
 BOUNDARY       17  CELL              (1,5,9)   RATE     1.78348    
 BOUNDARY       18  CELL              (1,6,8)   RATE     1.22572    
 BOUNDARY       19  CELL              (1,6,8)   RATE     2.03898    
 BOUNDARY       20  CELL              (1,7,7)   RATE     2.46004    
 BOUNDARY       21  CELL              (1,8,7)   RATE     1.58653    
 BOUNDARY       22  CELL              (1,8,6)   RATE     0.00000    
 BOUNDARY       23  CELL              (1,9,6)   RATE     0.00000    
 BOUNDARY       24  CELL             (1,10,7)   RATE     0.00000    
 BOUNDARY       25  CELL             (1,11,7)   RATE     0.00000    
 BOUNDARY       26  CELL             (1,12,7)   RATE     0.00000    
 BOUNDARY       27  CELL             (1,13,7)   RATE   -0.145036    
 BOUNDARY       28  CELL             (1,14,9)   RATE     3.20521    
 BOUNDARY       29  CELL             (1,13,8)   RATE     6.43670    
 BOUNDARY       30  CELL             (1,13,7)   RATE     11.2901    
 BOUNDARY       31  CELL             (1,13,6)   RATE     10.5057    
 BOUNDARY       32  CELL             (1,13,5)   RATE     8.91752    
 BOUNDARY       33  CELL             (1,13,4)   RATE     5.79673    
 BOUNDARY       34  CELL             (1,13,3)   RATE     2.58686    
 BOUNDARY       35  CELL             (1,13,2)   RATE    0.339539    
 BOUNDARY       36  CELL             (1,13,1)   RATE    0.545525    

 UBDSV06 SAVING     FLOW-JA-FACE IN MODEL GWF_1            PACKAGE SFR-1           CONNECTED TO MODEL GWF_1            PACKAGE SFR-1            ON UNIT   1019 AT TIME STEP     20, STRESS PERIOD      2
 UBDSV06 SAVING              GWF IN MODEL GWF_1            PACKAGE SFR-1           CONNECTED TO MODEL GWF_1            PACKAGE GWF_1            ON UNIT   1019 AT TIME STEP     20, STRESS PERIOD      2
 UBDSV06 SAVING       EXT-INFLOW IN MODEL GWF_1            PACKAGE SFR-1           CONNECTED TO MODEL GWF_1            PACKAGE SFR-1            ON UNIT   1019 AT TIME STEP     20, STRESS PERIOD      2
 UBDSV06 SAVING         RAINFALL IN MODEL GWF_1            PACKAGE SFR-1           CONNECTED TO MODEL GWF_1            PACKAGE SFR-1            ON UNIT   1019 AT TIME STEP     20, STRESS PERIOD      2
 UBDSV06 SAVING           RUNOFF IN MODEL GWF_1            PACKAGE SFR-1           CONNECTED TO MODEL GWF_1            PACKAGE SFR-1            ON UNIT   1019 AT TIME STEP     20, STRESS PERIOD      2
 UBDSV06 SAVING      EVAPORATION IN MODEL GWF_1            PACKAGE SFR-1           CONNECTED TO MODEL GWF_1            PACKAGE SFR-1            ON UNIT   1019 AT TIME STEP     20, STRESS PERIOD      2
 UBDSV06 SAVING      EXT-OUTFLOW IN MODEL GWF_1            PACKAGE SFR-1           CONNECTED TO MODEL GWF_1            PACKAGE SFR-1            ON UNIT   1019 AT TIME STEP     20, STRESS PERIOD      2
1
  HEAD IN LAYER   1 AT END OF TIME STEP  20 IN STRESS PERIOD    2
  ---------------------------------------------------------------------------

            1           2           3           4           5           6           7           8           9          10
 ........................................................................................................................
   1    1054.       1032.      1.0000E+30  1.0000E+30  1.0000E+30  1.0000E+30  1.0000E+30  1.0000E+30  1.0000E+30  1.0000E+30
   2    1034.       1015.       998.6      1.0000E+30  1.0000E+30   982.4       983.8       983.6      1.0000E+30  1.0000E+30
   3   1.0000E+30   994.7       989.4       984.6       984.3       984.6       985.2       980.5      1.0000E+30  1.0000E+30
   4    970.7       976.6       979.3       977.7       977.1       975.8       976.2       980.2       973.6      1.0000E+30
   5    963.1       966.1       970.9       973.3       973.8       974.5       973.8       974.4       976.8       981.1    
   6    954.0       960.2       967.0       971.5       972.7       974.0       973.9       975.1       972.5       976.4    
   7    948.8       957.7       966.2       971.8       973.2       974.4       975.3       973.7       965.3      1.0000E+30
   8   1.0000E+30   958.6       968.4       974.4       976.0       977.0       977.9       973.0       967.3      1.0000E+30
   9   1.0000E+30   965.1       974.0       979.4       980.8       981.7       982.1       978.6       976.6      1.0000E+30
  10   1.0000E+30   975.3       982.1       986.2       987.3       988.3       989.1       988.5       989.9       991.7    
  11   1.0000E+30   986.8       992.3       994.0       995.4       997.0       998.5       1000.       1003.      1.0000E+30
  12    993.8       995.9       1001.       1002.       1005.       1008.       1011.       1017.       1021.      1.0000E+30
  13    992.8       997.9       1004.       1009.       1015.       1021.       1027.       1033.       1034.      1.0000E+30
  14   1.0000E+30   1001.       1005.       1010.       1015.       1020.       1027.       1034.       1038.      1.0000E+30
  15   1.0000E+30  1.0000E+30   1008.       1011.       1015.       1018.      1.0000E+30  1.0000E+30  1.0000E+30  1.0000E+30

 HEAD WILL BE SAVED ON UNIT 1021 AT END OF TIME STEP   20, STRESS PERIOD    2



 SFR (SFR-1) FLOWS   PERIOD      2   STEP       20
 ----------------------------------------------------------------------------------------------------------------------------------------------------
 REACH  REACH                 EXTERNAL      REACH       REACH       REACH       REACH       REACH       REACH     EXTERNAL      REACH      PERCENT   
  NO.   (LAYER,ROW,COLUMN)     INFLOW      INFLOW     RAINFALL     RUNOFF      LEAKAGE   EVAPORATION   OUTFLOW     OUTFLOW    IN - OUT   DIFFERENCE  
 ----------------------------------------------------------------------------------------------------------------------------------------------------
      1 (1,1,1)                25.00       0.000       0.000       0.000      -2.270       0.000      -22.73       0.000       0.000       0.000     
      2 (1,2,2)                0.000       22.73       0.000       0.000      -3.457       0.000      -19.27       0.000       0.000       0.000     
      3 (1,3,3)                0.000       19.27       0.000       0.000      -2.888       0.000      -16.39       0.000       0.000       0.000     
      4 (1,3,4)                0.000       16.39       0.000       0.000      -2.607       0.000      -13.78       0.000       0.000       0.000     
      5 (1,4,5)                0.000       6.889       0.000       0.000      -2.721       0.000      -4.168       0.000       0.000       0.000     
      6 (1,5,6)                0.000       4.168       0.000       0.000      -2.010       0.000      -2.159       0.000       0.000       0.000     
      7 (1,6,6)                0.000       2.159       0.000       0.000      -1.917       0.000     -0.2414       0.000       0.000       0.000     
      8 (1,7,6)                0.000      0.2414       0.000       0.000     -0.2414       0.000       0.000       0.000       0.000       0.000     
      9 (1,8,6)                0.000       0.000       0.000       0.000       0.000       0.000       0.000       0.000       0.000       0.000     
     10 (1,3,5)                0.000       6.889       0.000       0.000      -2.000       0.000      -4.889       0.000       0.000       0.000     
     11 (1,3,6)                0.000       4.889       0.000       0.000      -1.893       0.000      -2.996       0.000       0.000       0.000     
     12 (1,3,7)                0.000       2.996       0.000       0.000      -1.599       0.000      -1.397       0.000       0.000       0.000     
     13 (1,4,8)                0.000       1.397       0.000       0.000      -1.397       0.000       0.000       0.000       0.000       0.000     
     14 (1,5,8)                0.000       0.000       0.000       0.000       0.000       0.000       0.000       0.000       0.000       0.000     
     15 (1,6,8)                0.000       0.000       0.000       0.000       0.000       0.000       0.000       0.000       0.000       0.000     
     16 (1,5,10)               10.00       0.000       0.000       0.000     -0.9053       0.000      -9.095       0.000       0.000       0.000     
     17 (1,5,9)                0.000       9.095       0.000       0.000      -1.783       0.000      -7.311       0.000       0.000       0.000     
     18 (1,6,8)                0.000       7.311       0.000       0.000      -1.226       0.000      -6.086       0.000       0.000       0.000     
     19 (1,6,8)                0.000       6.086       0.000       0.000      -2.039       0.000      -4.047       0.000       0.000       0.000     
     20 (1,7,7)                0.000       4.047       0.000       0.000      -2.460       0.000      -1.587       0.000       0.000       0.000     
     21 (1,8,7)                0.000       1.587       0.000       0.000      -1.587       0.000       0.000       0.000       0.000       0.000     
     22 (1,8,6)                0.000       0.000       0.000       0.000       0.000       0.000       0.000       0.000       0.000       0.000     
     23 (1,9,6)                0.000       0.000       0.000       0.000       0.000       0.000       0.000       0.000       0.000       0.000     
     24 (1,10,7)               0.000       0.000       0.000       0.000       0.000       0.000       0.000       0.000       0.000       0.000     
     25 (1,11,7)               0.000       0.000       0.000       0.000       0.000       0.000       0.000       0.000       0.000       0.000     
     26 (1,12,7)               0.000       0.000       0.000       0.000       0.000       0.000       0.000       0.000       0.000       0.000     
     27 (1,13,7)               0.000       0.000       0.000       0.000      0.1450       0.000     -0.1450       0.000       0.000       0.000     
     28 (1,14,9)               150.0       0.000       0.000       0.000      -3.205       0.000      -146.8       0.000       0.000       0.000     
     29 (1,13,8)               0.000       146.8       0.000       0.000      -6.437       0.000      -140.4       0.000       0.000       0.000     
     30 (1,13,7)               0.000       140.4       0.000       0.000      -11.29       0.000      -129.1       0.000       0.000       0.000     
     31 (1,13,6)               0.000       129.2       0.000       0.000      -10.51       0.000      -118.7       0.000       0.000       0.000     
     32 (1,13,5)               0.000       118.7       0.000       0.000      -8.918       0.000      -109.8       0.000       0.000       0.000     
     33 (1,13,4)               0.000       109.8       0.000       0.000      -5.797       0.000      -104.0       0.000       0.000       0.000     
     34 (1,13,3)               0.000       104.0       0.000       0.000      -2.587       0.000      -101.4       0.000       0.000       0.000     
     35 (1,13,2)               0.000       101.4       0.000       0.000     -0.3395       0.000      -101.1       0.000       0.000       0.000     
     36 (1,13,1)               0.000       101.1       0.000       0.000     -0.5455       0.000       0.000      -100.5       0.000       0.000     


  SFR-1 BUDGET FOR ENTIRE MODEL AT END OF TIME STEP   20, STRESS PERIOD   2
  ------------------------------------------------------------------------------

     CUMULATIVE SFR-1      L**3       RATES FOR THIS TIME STEP      L**3/T
     ------------------                 ------------------------

           IN:                                      IN:
           ---                                      ---
          EXT-INFLOW =306272347284.7928            EXT-INFLOW =         185.0000
            RAINFALL =           0.0000              RAINFALL =           0.0000
              RUNOFF =           0.0000                RUNOFF =           0.0000
                 GWF =   656573093.1487                   GWF =           0.1450
         EVAPORATION =           0.0000           EVAPORATION =           0.0000
         EXT-OUTFLOW =           0.0000           EXT-OUTFLOW =           0.0000

            TOTAL IN =306928920377.9416              TOTAL IN =         185.1450

          OUT:                                     OUT:
          ----                                     ----
          EXT-INFLOW =           0.0000            EXT-INFLOW =           0.0000
            RAINFALL =           0.0000              RAINFALL =           0.0000
              RUNOFF =           0.0000                RUNOFF =           0.0000
                 GWF =153573560563.5541                   GWF =          84.6239
         EVAPORATION =           0.0000           EVAPORATION =           0.0000
         EXT-OUTFLOW =153355359814.3873           EXT-OUTFLOW =         100.5212

           TOTAL OUT =306928920377.9414             TOTAL OUT =         185.1450

            IN - OUT =       1.8311E-04              IN - OUT =           0.0000

 PERCENT DISCREPANCY =           0.00     PERCENT DISCREPANCY =           0.00



  VOLUME BUDGET FOR ENTIRE MODEL AT END OF TIME STEP   20, STRESS PERIOD   2
  ---------------------------------------------------------------------------------------------------

     CUMULATIVE VOLUME      L**3       RATES FOR THIS TIME STEP      L**3/T          PACKAGE NAME    
     ------------------                 ------------------------                     ----------------

           IN:                                      IN:
           ---                                      ---
              STO-SS =   258189090.0212                STO-SS =           0.0000     STORAGE         
              STO-SY = 30604404446.3969                STO-SY =           0.0000     STORAGE         
                 WEL =           0.0000                   WEL =           0.0000     WEL-1           
                 GHB =   423512783.1768                   GHB =           0.2564     GHB-1           
                 RCH =  2969600124.0113                   RCH =           1.7938     RCH-1           
                 EVT =           0.0000                   EVT =           0.0000     EVT-1           
                 SFR =153573560422.3396                   SFR =          84.6239     SFR-1           

            TOTAL IN =187829266865.9457              TOTAL IN =          86.6740

          OUT:                                     OUT:
          ----                                     ----
              STO-SS =    48573904.5314                STO-SS =           0.5715     STORAGE         
              STO-SY =  6466215860.0669                STO-SY =          72.0118     STORAGE         
                 WEL =157788000000.0000                   WEL =           0.0000     WEL-1           
                 GHB =   297312896.0335                   GHB =           0.1810     GHB-1           
                 RCH =           0.0000                   RCH =           0.0000     RCH-1           
                 EVT = 22572591442.0300                   EVT =          13.7647     EVT-1           
                 SFR =   656572827.5120                   SFR =           0.1450     SFR-1           

           TOTAL OUT =187829266930.1738             TOTAL OUT =          86.6740

            IN - OUT =         -64.2281              IN - OUT =       3.3820E-09

 PERCENT DISCREPANCY =          -0.00     PERCENT DISCREPANCY =           0.00




         TIME SUMMARY AT END OF TIME STEP   20 IN STRESS PERIOD    2
                    SECONDS     MINUTES      HOURS       DAYS        YEARS
                    -----------------------------------------------------------
   TIME STEP LENGTH 8.29118E+06 1.38186E+05  2303.1      95.963     0.26273    
 STRESS PERIOD TIME 7.76462E+07 1.29410E+06  21568.      898.68      2.4605    
         TOTAL TIME 1.65553E+09 2.75921E+07 4.59868E+05  19161.      52.460    
 UBDSV1 SAVING           STO-SS ON UNIT   1022 AT TIME STEP     25, STRESS PERIOD      2
 UBDSV1 SAVING           STO-SY ON UNIT   1022 AT TIME STEP     25, STRESS PERIOD      2
 UBDSV1 SAVING     FLOW-JA-FACE ON UNIT   1022 AT TIME STEP     25, STRESS PERIOD      2
 UBDSV06 SAVING              WEL IN MODEL GWF_1            PACKAGE GWF_1           CONNECTED TO MODEL GWF_1            PACKAGE WEL-1            ON UNIT   1022 AT TIME STEP     25, STRESS PERIOD      2
 UBDSV06 SAVING              GHB IN MODEL GWF_1            PACKAGE GWF_1           CONNECTED TO MODEL GWF_1            PACKAGE GHB-1            ON UNIT   1022 AT TIME STEP     25, STRESS PERIOD      2
 UBDSV06 SAVING              RCH IN MODEL GWF_1            PACKAGE GWF_1           CONNECTED TO MODEL GWF_1            PACKAGE RCH-1            ON UNIT   1022 AT TIME STEP     25, STRESS PERIOD      2
 UBDSV06 SAVING              EVT IN MODEL GWF_1            PACKAGE GWF_1           CONNECTED TO MODEL GWF_1            PACKAGE EVT-1            ON UNIT   1022 AT TIME STEP     25, STRESS PERIOD      2
 UBDSV06 SAVING              SFR IN MODEL GWF_1            PACKAGE GWF_1           CONNECTED TO MODEL GWF_1            PACKAGE SFR-1            ON UNIT   1022 AT TIME STEP     25, STRESS PERIOD      2

              SFR (SFR-1)   PERIOD 2   STEP 25
 BOUNDARY        1  CELL              (1,1,1)   RATE     2.27027    
 BOUNDARY        2  CELL              (1,2,2)   RATE     3.45685    
 BOUNDARY        3  CELL              (1,3,3)   RATE     2.88787    
 BOUNDARY        4  CELL              (1,3,4)   RATE     2.60696    
 BOUNDARY        5  CELL              (1,4,5)   RATE     2.72090    
 BOUNDARY        6  CELL              (1,5,6)   RATE     2.00960    
 BOUNDARY        7  CELL              (1,6,6)   RATE     1.91716    
 BOUNDARY        8  CELL              (1,7,6)   RATE    0.241369    
 BOUNDARY        9  CELL              (1,8,6)   RATE     0.00000    
 BOUNDARY       10  CELL              (1,3,5)   RATE     2.00017    
 BOUNDARY       11  CELL              (1,3,6)   RATE     1.89314    
 BOUNDARY       12  CELL              (1,3,7)   RATE     1.59908    
 BOUNDARY       13  CELL              (1,4,8)   RATE     1.39664    
 BOUNDARY       14  CELL              (1,5,8)   RATE     0.00000    
 BOUNDARY       15  CELL              (1,6,8)   RATE     0.00000    
 BOUNDARY       16  CELL             (1,5,10)   RATE    0.905253    
 BOUNDARY       17  CELL              (1,5,9)   RATE     1.78348    
 BOUNDARY       18  CELL              (1,6,8)   RATE     1.22572    
 BOUNDARY       19  CELL              (1,6,8)   RATE     2.03898    
 BOUNDARY       20  CELL              (1,7,7)   RATE     2.46004    
 BOUNDARY       21  CELL              (1,8,7)   RATE     1.58653    
 BOUNDARY       22  CELL              (1,8,6)   RATE     0.00000    
 BOUNDARY       23  CELL              (1,9,6)   RATE     0.00000    
 BOUNDARY       24  CELL             (1,10,7)   RATE     0.00000    
 BOUNDARY       25  CELL             (1,11,7)   RATE     0.00000    
 BOUNDARY       26  CELL             (1,12,7)   RATE     0.00000    
 BOUNDARY       27  CELL             (1,13,7)   RATE   -0.222605    
 BOUNDARY       28  CELL             (1,14,9)   RATE     3.11864    
 BOUNDARY       29  CELL             (1,13,8)   RATE     5.88636    
 BOUNDARY       30  CELL             (1,13,7)   RATE     9.49776    
 BOUNDARY       31  CELL             (1,13,6)   RATE     8.44659    
 BOUNDARY       32  CELL             (1,13,5)   RATE     6.63399    
 BOUNDARY       33  CELL             (1,13,4)   RATE     3.84911    
 BOUNDARY       34  CELL             (1,13,3)   RATE     1.32149    
 BOUNDARY       35  CELL             (1,13,2)   RATE   -3.957662E-03
 BOUNDARY       36  CELL             (1,13,1)   RATE    0.474067    

 UBDSV06 SAVING     FLOW-JA-FACE IN MODEL GWF_1            PACKAGE SFR-1           CONNECTED TO MODEL GWF_1            PACKAGE SFR-1            ON UNIT   1019 AT TIME STEP     25, STRESS PERIOD      2
 UBDSV06 SAVING              GWF IN MODEL GWF_1            PACKAGE SFR-1           CONNECTED TO MODEL GWF_1            PACKAGE GWF_1            ON UNIT   1019 AT TIME STEP     25, STRESS PERIOD      2
 UBDSV06 SAVING       EXT-INFLOW IN MODEL GWF_1            PACKAGE SFR-1           CONNECTED TO MODEL GWF_1            PACKAGE SFR-1            ON UNIT   1019 AT TIME STEP     25, STRESS PERIOD      2
 UBDSV06 SAVING         RAINFALL IN MODEL GWF_1            PACKAGE SFR-1           CONNECTED TO MODEL GWF_1            PACKAGE SFR-1            ON UNIT   1019 AT TIME STEP     25, STRESS PERIOD      2
 UBDSV06 SAVING           RUNOFF IN MODEL GWF_1            PACKAGE SFR-1           CONNECTED TO MODEL GWF_1            PACKAGE SFR-1            ON UNIT   1019 AT TIME STEP     25, STRESS PERIOD      2
 UBDSV06 SAVING      EVAPORATION IN MODEL GWF_1            PACKAGE SFR-1           CONNECTED TO MODEL GWF_1            PACKAGE SFR-1            ON UNIT   1019 AT TIME STEP     25, STRESS PERIOD      2
 UBDSV06 SAVING      EXT-OUTFLOW IN MODEL GWF_1            PACKAGE SFR-1           CONNECTED TO MODEL GWF_1            PACKAGE SFR-1            ON UNIT   1019 AT TIME STEP     25, STRESS PERIOD      2
1
  HEAD IN LAYER   1 AT END OF TIME STEP  25 IN STRESS PERIOD    2
  ---------------------------------------------------------------------------

            1           2           3           4           5           6           7           8           9          10
 ........................................................................................................................
   1    1055.       1034.      1.0000E+30  1.0000E+30  1.0000E+30  1.0000E+30  1.0000E+30  1.0000E+30  1.0000E+30  1.0000E+30
   2    1035.       1021.       1008.      1.0000E+30  1.0000E+30   988.3       988.4       986.4      1.0000E+30  1.0000E+30
   3   1.0000E+30   1004.       1001.       997.4       997.6       997.0       996.1       989.3      1.0000E+30  1.0000E+30
   4    976.0       987.1       992.1       991.6       991.4       990.0       989.6       991.8       981.0      1.0000E+30
   5    969.5       978.7       985.1       987.9       988.5       989.0       988.1       988.1       988.6       988.8    
   6    961.3       974.4       982.0       986.3       987.4       988.6       988.4       989.1       984.8       978.3    
   7    956.7       973.1       981.5       986.3       987.6       988.7       989.5       988.0       973.5      1.0000E+30
   8   1.0000E+30   975.5       983.4       988.1       989.4       990.3       991.2       986.7       973.3      1.0000E+30
   9   1.0000E+30   980.4       987.2       991.4       992.6       993.4       993.7       990.3       982.9      1.0000E+30
  10   1.0000E+30   987.0       992.5       995.9       996.9       997.9       998.5       997.4       995.8       994.1    
  11   1.0000E+30   993.9       998.7       1001.       1002.       1004.       1005.       1007.       1007.      1.0000E+30
  12    995.1       998.5       1003.       1005.       1008.       1012.       1015.       1020.       1023.      1.0000E+30
  13    992.9       998.1       1004.       1010.       1015.       1021.       1027.       1033.       1034.      1.0000E+30
  14   1.0000E+30   1001.       1006.       1010.       1015.       1021.       1027.       1034.       1038.      1.0000E+30
  15   1.0000E+30  1.0000E+30   1008.       1011.       1015.       1019.      1.0000E+30  1.0000E+30  1.0000E+30  1.0000E+30

 HEAD WILL BE SAVED ON UNIT 1021 AT END OF TIME STEP   25, STRESS PERIOD    2



 SFR (SFR-1) FLOWS   PERIOD      2   STEP       25
 ----------------------------------------------------------------------------------------------------------------------------------------------------
 REACH  REACH                 EXTERNAL      REACH       REACH       REACH       REACH       REACH       REACH     EXTERNAL      REACH      PERCENT   
  NO.   (LAYER,ROW,COLUMN)     INFLOW      INFLOW     RAINFALL     RUNOFF      LEAKAGE   EVAPORATION   OUTFLOW     OUTFLOW    IN - OUT   DIFFERENCE  
 ----------------------------------------------------------------------------------------------------------------------------------------------------
      1 (1,1,1)                25.00       0.000       0.000       0.000      -2.270       0.000      -22.73       0.000       0.000       0.000     
      2 (1,2,2)                0.000       22.73       0.000       0.000      -3.457       0.000      -19.27       0.000       0.000       0.000     
      3 (1,3,3)                0.000       19.27       0.000       0.000      -2.888       0.000      -16.39       0.000       0.000       0.000     
      4 (1,3,4)                0.000       16.39       0.000       0.000      -2.607       0.000      -13.78       0.000       0.000       0.000     
      5 (1,4,5)                0.000       6.889       0.000       0.000      -2.721       0.000      -4.168       0.000       0.000       0.000     
      6 (1,5,6)                0.000       4.168       0.000       0.000      -2.010       0.000      -2.159       0.000       0.000       0.000     
      7 (1,6,6)                0.000       2.159       0.000       0.000      -1.917       0.000     -0.2414       0.000       0.000       0.000     
      8 (1,7,6)                0.000      0.2414       0.000       0.000     -0.2414       0.000       0.000       0.000       0.000       0.000     
      9 (1,8,6)                0.000       0.000       0.000       0.000       0.000       0.000       0.000       0.000       0.000       0.000     
     10 (1,3,5)                0.000       6.889       0.000       0.000      -2.000       0.000      -4.889       0.000       0.000       0.000     
     11 (1,3,6)                0.000       4.889       0.000       0.000      -1.893       0.000      -2.996       0.000       0.000       0.000     
     12 (1,3,7)                0.000       2.996       0.000       0.000      -1.599       0.000      -1.397       0.000       0.000       0.000     
     13 (1,4,8)                0.000       1.397       0.000       0.000      -1.397       0.000       0.000       0.000       0.000       0.000     
     14 (1,5,8)                0.000       0.000       0.000       0.000       0.000       0.000       0.000       0.000       0.000       0.000     
     15 (1,6,8)                0.000       0.000       0.000       0.000       0.000       0.000       0.000       0.000       0.000       0.000     
     16 (1,5,10)               10.00       0.000       0.000       0.000     -0.9053       0.000      -9.095       0.000       0.000       0.000     
     17 (1,5,9)                0.000       9.095       0.000       0.000      -1.783       0.000      -7.311       0.000       0.000       0.000     
     18 (1,6,8)                0.000       7.311       0.000       0.000      -1.226       0.000      -6.086       0.000       0.000       0.000     
     19 (1,6,8)                0.000       6.086       0.000       0.000      -2.039       0.000      -4.047       0.000       0.000       0.000     
     20 (1,7,7)                0.000       4.047       0.000       0.000      -2.460       0.000      -1.587       0.000       0.000       0.000     
     21 (1,8,7)                0.000       1.587       0.000       0.000      -1.587       0.000       0.000       0.000       0.000       0.000     
     22 (1,8,6)                0.000       0.000       0.000       0.000       0.000       0.000       0.000       0.000       0.000       0.000     
     23 (1,9,6)                0.000       0.000       0.000       0.000       0.000       0.000       0.000       0.000       0.000       0.000     
     24 (1,10,7)               0.000       0.000       0.000       0.000       0.000       0.000       0.000       0.000       0.000       0.000     
     25 (1,11,7)               0.000       0.000       0.000       0.000       0.000       0.000       0.000       0.000       0.000       0.000     
     26 (1,12,7)               0.000       0.000       0.000       0.000       0.000       0.000       0.000       0.000       0.000       0.000     
     27 (1,13,7)               0.000       0.000       0.000       0.000      0.2226       0.000     -0.2226       0.000       0.000       0.000     
     28 (1,14,9)               150.0       0.000       0.000       0.000      -3.119       0.000      -146.9       0.000       0.000       0.000     
     29 (1,13,8)               0.000       146.9       0.000       0.000      -5.886       0.000      -141.0       0.000       0.000       0.000     
     30 (1,13,7)               0.000       141.0       0.000       0.000      -9.498       0.000      -131.5       0.000       0.000       0.000     
     31 (1,13,6)               0.000       131.7       0.000       0.000      -8.447       0.000      -123.3       0.000       0.000       0.000     
     32 (1,13,5)               0.000       123.3       0.000       0.000      -6.634       0.000      -116.6       0.000       0.000       0.000     
     33 (1,13,4)               0.000       116.6       0.000       0.000      -3.849       0.000      -112.8       0.000       0.000       0.000     
     34 (1,13,3)               0.000       112.8       0.000       0.000      -1.321       0.000      -111.5       0.000       0.000       0.000     
     35 (1,13,2)               0.000       111.5       0.000       0.000      0.3958E-02   0.000      -111.5       0.000       0.000       0.000     
     36 (1,13,1)               0.000       111.5       0.000       0.000     -0.4741       0.000       0.000      -111.0       0.000       0.000     


  SFR-1 BUDGET FOR ENTIRE MODEL AT END OF TIME STEP   25, STRESS PERIOD   2
  ------------------------------------------------------------------------------

     CUMULATIVE SFR-1      L**3       RATES FOR THIS TIME STEP      L**3/T
     ------------------                 ------------------------

           IN:                                      IN:
           ---                                      ---
          EXT-INFLOW =316573203719.9021            EXT-INFLOW =         185.0000
            RAINFALL =           0.0000              RAINFALL =           0.0000
              RUNOFF =           0.0000                RUNOFF =           0.0000
                 GWF =   667427683.1854                   GWF =           0.2266
         EVAPORATION =           0.0000           EVAPORATION =           0.0000
         EXT-OUTFLOW =           0.0000           EXT-OUTFLOW =           0.0000

            TOTAL IN =317240631403.0875              TOTAL IN =         185.2266

          OUT:                                     OUT:
          ----                                     ----
          EXT-INFLOW =           0.0000            EXT-INFLOW =           0.0000
            RAINFALL =           0.0000              RAINFALL =           0.0000
              RUNOFF =           0.0000                RUNOFF =           0.0000
                 GWF =157919662132.0385                   GWF =          74.2280
         EVAPORATION =           0.0000           EVAPORATION =           0.0000
         EXT-OUTFLOW =159320969271.0489           EXT-OUTFLOW =         110.9986

           TOTAL OUT =317240631403.0875             TOTAL OUT =         185.2266

            IN - OUT =           0.0000              IN - OUT =      -2.8422E-14

 PERCENT DISCREPANCY =           0.00     PERCENT DISCREPANCY =          -0.00



  VOLUME BUDGET FOR ENTIRE MODEL AT END OF TIME STEP   25, STRESS PERIOD   2
  ---------------------------------------------------------------------------------------------------

     CUMULATIVE VOLUME      L**3       RATES FOR THIS TIME STEP      L**3/T          PACKAGE NAME    
     ------------------                 ------------------------                     ----------------

           IN:                                      IN:
           ---                                      ---
              STO-SS =   258189090.0212                STO-SS =           0.0000     STORAGE         
              STO-SY = 30604404446.3969                STO-SY =           0.0000     STORAGE         
                 WEL =           0.0000                   WEL =           0.0000     WEL-1           
                 GHB =   437768556.5105                   GHB =           0.2558     GHB-1           
                 RCH =  3069476671.2031                   RCH =           1.7938     RCH-1           
                 EVT =           0.0000                   EVT =           0.0000     EVT-1           
                 SFR =157919661977.4378                   SFR =          74.2280     SFR-1           

            TOTAL IN =192289500741.5694              TOTAL IN =          76.2775

          OUT:                                     OUT:
          ----                                     ----
              STO-SS =    77943632.0176                STO-SS =           0.5010     STORAGE         
              STO-SY = 10094268536.3478                STO-SY =          61.1651     STORAGE         
                 WEL =157788000000.0000                   WEL =           0.0000     WEL-1           
                 GHB =   307520116.1524                   GHB =           0.1847     GHB-1           
                 RCH =           0.0000                   RCH =           0.0000     RCH-1           
                 EVT = 23354341103.6989                   EVT =          14.2001     EVT-1           
                 SFR =   667427417.5773                   SFR =           0.2266     SFR-1           

           TOTAL OUT =192289500805.7940             TOTAL OUT =          76.2775

            IN - OUT =         -64.2246              IN - OUT =      -8.9032E-09

 PERCENT DISCREPANCY =          -0.00     PERCENT DISCREPANCY =          -0.00




         TIME SUMMARY AT END OF TIME STEP   25 IN STRESS PERIOD    2
                    SECONDS     MINUTES      HOURS       DAYS        YEARS
                    -----------------------------------------------------------
   TIME STEP LENGTH 1.33530E+07 2.22550E+05  3709.2      154.55     0.42313    
 STRESS PERIOD TIME 1.33327E+08 2.22211E+06  37035.      1543.1      4.2249    
         TOTAL TIME 1.71121E+09 2.85201E+07 4.75335E+05  19806.      54.225    
 UBDSV1 SAVING           STO-SS ON UNIT   1022 AT TIME STEP     30, STRESS PERIOD      2
 UBDSV1 SAVING           STO-SY ON UNIT   1022 AT TIME STEP     30, STRESS PERIOD      2
 UBDSV1 SAVING     FLOW-JA-FACE ON UNIT   1022 AT TIME STEP     30, STRESS PERIOD      2
 UBDSV06 SAVING              WEL IN MODEL GWF_1            PACKAGE GWF_1           CONNECTED TO MODEL GWF_1            PACKAGE WEL-1            ON UNIT   1022 AT TIME STEP     30, STRESS PERIOD      2
 UBDSV06 SAVING              GHB IN MODEL GWF_1            PACKAGE GWF_1           CONNECTED TO MODEL GWF_1            PACKAGE GHB-1            ON UNIT   1022 AT TIME STEP     30, STRESS PERIOD      2
 UBDSV06 SAVING              RCH IN MODEL GWF_1            PACKAGE GWF_1           CONNECTED TO MODEL GWF_1            PACKAGE RCH-1            ON UNIT   1022 AT TIME STEP     30, STRESS PERIOD      2
 UBDSV06 SAVING              EVT IN MODEL GWF_1            PACKAGE GWF_1           CONNECTED TO MODEL GWF_1            PACKAGE EVT-1            ON UNIT   1022 AT TIME STEP     30, STRESS PERIOD      2
 UBDSV06 SAVING              SFR IN MODEL GWF_1            PACKAGE GWF_1           CONNECTED TO MODEL GWF_1            PACKAGE SFR-1            ON UNIT   1022 AT TIME STEP     30, STRESS PERIOD      2

              SFR (SFR-1)   PERIOD 2   STEP 30
 BOUNDARY        1  CELL              (1,1,1)   RATE     2.27027    
 BOUNDARY        2  CELL              (1,2,2)   RATE     3.45685    
 BOUNDARY        3  CELL              (1,3,3)   RATE     2.88787    
 BOUNDARY        4  CELL              (1,3,4)   RATE     2.60696    
 BOUNDARY        5  CELL              (1,4,5)   RATE     2.72090    
 BOUNDARY        6  CELL              (1,5,6)   RATE     2.00960    
 BOUNDARY        7  CELL              (1,6,6)   RATE     1.91716    
 BOUNDARY        8  CELL              (1,7,6)   RATE    0.241369    
 BOUNDARY        9  CELL              (1,8,6)   RATE     0.00000    
 BOUNDARY       10  CELL              (1,3,5)   RATE     2.00017    
 BOUNDARY       11  CELL              (1,3,6)   RATE     1.89314    
 BOUNDARY       12  CELL              (1,3,7)   RATE     1.59908    
 BOUNDARY       13  CELL              (1,4,8)   RATE     1.39664    
 BOUNDARY       14  CELL              (1,5,8)   RATE     0.00000    
 BOUNDARY       15  CELL              (1,6,8)   RATE     0.00000    
 BOUNDARY       16  CELL             (1,5,10)   RATE    0.905253    
 BOUNDARY       17  CELL              (1,5,9)   RATE     1.78348    
 BOUNDARY       18  CELL              (1,6,8)   RATE     1.22572    
 BOUNDARY       19  CELL              (1,6,8)   RATE     2.03898    
 BOUNDARY       20  CELL              (1,7,7)   RATE     2.46004    
 BOUNDARY       21  CELL              (1,8,7)   RATE     1.58653    
 BOUNDARY       22  CELL              (1,8,6)   RATE     0.00000    
 BOUNDARY       23  CELL              (1,9,6)   RATE     0.00000    
 BOUNDARY       24  CELL             (1,10,7)   RATE     0.00000    
 BOUNDARY       25  CELL             (1,11,7)   RATE     0.00000    
 BOUNDARY       26  CELL             (1,12,7)   RATE     0.00000    
 BOUNDARY       27  CELL             (1,13,7)   RATE   -0.304414    
 BOUNDARY       28  CELL             (1,14,9)   RATE     3.00394    
 BOUNDARY       29  CELL             (1,13,8)   RATE     5.25812    
 BOUNDARY       30  CELL             (1,13,7)   RATE     7.61756    
 BOUNDARY       31  CELL             (1,13,6)   RATE     6.26215    
 BOUNDARY       32  CELL             (1,13,5)   RATE     4.20876    
 BOUNDARY       33  CELL             (1,13,4)   RATE     1.78053    
 BOUNDARY       34  CELL             (1,13,3)   RATE   -2.460590E-02
 BOUNDARY       35  CELL             (1,13,2)   RATE   -0.384628    
 BOUNDARY       36  CELL             (1,13,1)   RATE    0.389019    

 UBDSV06 SAVING     FLOW-JA-FACE IN MODEL GWF_1            PACKAGE SFR-1           CONNECTED TO MODEL GWF_1            PACKAGE SFR-1            ON UNIT   1019 AT TIME STEP     30, STRESS PERIOD      2
 UBDSV06 SAVING              GWF IN MODEL GWF_1            PACKAGE SFR-1           CONNECTED TO MODEL GWF_1            PACKAGE GWF_1            ON UNIT   1019 AT TIME STEP     30, STRESS PERIOD      2
 UBDSV06 SAVING       EXT-INFLOW IN MODEL GWF_1            PACKAGE SFR-1           CONNECTED TO MODEL GWF_1            PACKAGE SFR-1            ON UNIT   1019 AT TIME STEP     30, STRESS PERIOD      2
 UBDSV06 SAVING         RAINFALL IN MODEL GWF_1            PACKAGE SFR-1           CONNECTED TO MODEL GWF_1            PACKAGE SFR-1            ON UNIT   1019 AT TIME STEP     30, STRESS PERIOD      2
 UBDSV06 SAVING           RUNOFF IN MODEL GWF_1            PACKAGE SFR-1           CONNECTED TO MODEL GWF_1            PACKAGE SFR-1            ON UNIT   1019 AT TIME STEP     30, STRESS PERIOD      2
 UBDSV06 SAVING      EVAPORATION IN MODEL GWF_1            PACKAGE SFR-1           CONNECTED TO MODEL GWF_1            PACKAGE SFR-1            ON UNIT   1019 AT TIME STEP     30, STRESS PERIOD      2
 UBDSV06 SAVING      EXT-OUTFLOW IN MODEL GWF_1            PACKAGE SFR-1           CONNECTED TO MODEL GWF_1            PACKAGE SFR-1            ON UNIT   1019 AT TIME STEP     30, STRESS PERIOD      2
1
  HEAD IN LAYER   1 AT END OF TIME STEP  30 IN STRESS PERIOD    2
  ---------------------------------------------------------------------------

            1           2           3           4           5           6           7           8           9          10
 ........................................................................................................................
   1    1058.       1042.      1.0000E+30  1.0000E+30  1.0000E+30  1.0000E+30  1.0000E+30  1.0000E+30  1.0000E+30  1.0000E+30
   2    1042.       1033.       1023.      1.0000E+30  1.0000E+30   1003.       1002.       997.7      1.0000E+30  1.0000E+30
   3   1.0000E+30   1019.       1018.       1015.       1016.       1014.       1013.       1005.      1.0000E+30  1.0000E+30
   4    990.8       1004.       1010.       1010.       1010.       1008.       1008.       1009.       999.8      1.0000E+30
   5    985.7       996.9       1004.       1006.       1007.       1007.       1006.       1006.       1006.       1005.    
   6    979.6       993.1       1000.       1004.       1005.       1006.       1006.       1007.       1002.       989.2    
   7    976.4       992.0       999.3       1003.       1004.       1005.       1006.       1005.       993.9      1.0000E+30
   8   1.0000E+30   994.3       999.9       1003.       1004.       1005.       1006.       1003.       990.0      1.0000E+30
   9   1.0000E+30   996.9       1001.       1004.       1005.       1006.       1007.       1004.       995.9      1.0000E+30
  10   1.0000E+30   999.6       1003.       1006.       1007.       1008.       1009.       1008.       1005.       1001.    
  11   1.0000E+30   1002.       1005.       1008.       1010.       1011.       1013.       1014.       1014.      1.0000E+30
  12    996.5       1001.       1006.       1009.       1012.       1016.       1018.       1023.       1025.      1.0000E+30
  13    993.0       998.2       1004.       1010.       1016.       1022.       1027.       1033.       1034.      1.0000E+30
  14   1.0000E+30   1002.       1006.       1011.       1016.       1021.       1028.       1034.       1038.      1.0000E+30
  15   1.0000E+30  1.0000E+30   1009.       1012.       1016.       1019.      1.0000E+30  1.0000E+30  1.0000E+30  1.0000E+30

 HEAD WILL BE SAVED ON UNIT 1021 AT END OF TIME STEP   30, STRESS PERIOD    2



 SFR (SFR-1) FLOWS   PERIOD      2   STEP       30
 ----------------------------------------------------------------------------------------------------------------------------------------------------
 REACH  REACH                 EXTERNAL      REACH       REACH       REACH       REACH       REACH       REACH     EXTERNAL      REACH      PERCENT   
  NO.   (LAYER,ROW,COLUMN)     INFLOW      INFLOW     RAINFALL     RUNOFF      LEAKAGE   EVAPORATION   OUTFLOW     OUTFLOW    IN - OUT   DIFFERENCE  
 ----------------------------------------------------------------------------------------------------------------------------------------------------
      1 (1,1,1)                25.00       0.000       0.000       0.000      -2.270       0.000      -22.73       0.000       0.000       0.000     
      2 (1,2,2)                0.000       22.73       0.000       0.000      -3.457       0.000      -19.27       0.000       0.000       0.000     
      3 (1,3,3)                0.000       19.27       0.000       0.000      -2.888       0.000      -16.39       0.000       0.000       0.000     
      4 (1,3,4)                0.000       16.39       0.000       0.000      -2.607       0.000      -13.78       0.000       0.000       0.000     
      5 (1,4,5)                0.000       6.889       0.000       0.000      -2.721       0.000      -4.168       0.000       0.000       0.000     
      6 (1,5,6)                0.000       4.168       0.000       0.000      -2.010       0.000      -2.159       0.000       0.000       0.000     
      7 (1,6,6)                0.000       2.159       0.000       0.000      -1.917       0.000     -0.2414       0.000       0.000       0.000     
      8 (1,7,6)                0.000      0.2414       0.000       0.000     -0.2414       0.000       0.000       0.000       0.000       0.000     
      9 (1,8,6)                0.000       0.000       0.000       0.000       0.000       0.000       0.000       0.000       0.000       0.000     
     10 (1,3,5)                0.000       6.889       0.000       0.000      -2.000       0.000      -4.889       0.000       0.000       0.000     
     11 (1,3,6)                0.000       4.889       0.000       0.000      -1.893       0.000      -2.996       0.000       0.000       0.000     
     12 (1,3,7)                0.000       2.996       0.000       0.000      -1.599       0.000      -1.397       0.000       0.000       0.000     
     13 (1,4,8)                0.000       1.397       0.000       0.000      -1.397       0.000       0.000       0.000       0.000       0.000     
     14 (1,5,8)                0.000       0.000       0.000       0.000       0.000       0.000       0.000       0.000       0.000       0.000     
     15 (1,6,8)                0.000       0.000       0.000       0.000       0.000       0.000       0.000       0.000       0.000       0.000     
     16 (1,5,10)               10.00       0.000       0.000       0.000     -0.9053       0.000      -9.095       0.000       0.000       0.000     
     17 (1,5,9)                0.000       9.095       0.000       0.000      -1.783       0.000      -7.311       0.000       0.000       0.000     
     18 (1,6,8)                0.000       7.311       0.000       0.000      -1.226       0.000      -6.086       0.000       0.000       0.000     
     19 (1,6,8)                0.000       6.086       0.000       0.000      -2.039       0.000      -4.047       0.000       0.000       0.000     
     20 (1,7,7)                0.000       4.047       0.000       0.000      -2.460       0.000      -1.587       0.000       0.000       0.000     
     21 (1,8,7)                0.000       1.587       0.000       0.000      -1.587       0.000       0.000       0.000       0.000       0.000     
     22 (1,8,6)                0.000       0.000       0.000       0.000       0.000       0.000       0.000       0.000       0.000       0.000     
     23 (1,9,6)                0.000       0.000       0.000       0.000       0.000       0.000       0.000       0.000       0.000       0.000     
     24 (1,10,7)               0.000       0.000       0.000       0.000       0.000       0.000       0.000       0.000       0.000       0.000     
     25 (1,11,7)               0.000       0.000       0.000       0.000       0.000       0.000       0.000       0.000       0.000       0.000     
     26 (1,12,7)               0.000       0.000       0.000       0.000       0.000       0.000       0.000       0.000       0.000       0.000     
     27 (1,13,7)               0.000       0.000       0.000       0.000      0.3044       0.000     -0.3044       0.000       0.000       0.000     
     28 (1,14,9)               150.0       0.000       0.000       0.000      -3.004       0.000      -147.0       0.000       0.000       0.000     
     29 (1,13,8)               0.000       147.0       0.000       0.000      -5.258       0.000      -141.7       0.000       0.000       0.000     
     30 (1,13,7)               0.000       141.7       0.000       0.000      -7.618       0.000      -134.1       0.000       0.000       0.000     
     31 (1,13,6)               0.000       134.4       0.000       0.000      -6.262       0.000      -128.2       0.000       0.000       0.000     
     32 (1,13,5)               0.000       128.2       0.000       0.000      -4.209       0.000      -124.0       0.000       0.000       0.000     
     33 (1,13,4)               0.000       124.0       0.000       0.000      -1.781       0.000      -122.2       0.000       0.000       0.000     
     34 (1,13,3)               0.000       122.2       0.000       0.000      0.2461E-01   0.000      -122.2       0.000       0.000       0.000     
     35 (1,13,2)               0.000       122.2       0.000       0.000      0.3846       0.000      -122.6       0.000       0.000       0.000     
     36 (1,13,1)               0.000       122.6       0.000       0.000     -0.3890       0.000       0.000      -122.2       0.000       0.000     


  SFR-1 BUDGET FOR ENTIRE MODEL AT END OF TIME STEP   30, STRESS PERIOD   2
  ------------------------------------------------------------------------------

     CUMULATIVE SFR-1      L**3       RATES FOR THIS TIME STEP      L**3/T
     ------------------                 ------------------------

           IN:                                      IN:
           ---                                      ---
          EXT-INFLOW =333162836017.2100            EXT-INFLOW =         185.0000
            RAINFALL =           0.0000              RAINFALL =           0.0000
              RUNOFF =           0.0000                RUNOFF =           0.0000
                 GWF =   714618748.5467                   GWF =           0.7136
         EVAPORATION =           0.0000           EVAPORATION =           0.0000
         EXT-OUTFLOW =           0.0000           EXT-OUTFLOW =           0.0000

            TOTAL IN =333877454765.7567              TOTAL IN =         185.7136

          OUT:                                     OUT:
          ----                                     ----
          EXT-INFLOW =           0.0000            EXT-INFLOW =           0.0000
            RAINFALL =           0.0000              RAINFALL =           0.0000
              RUNOFF =           0.0000                RUNOFF =           0.0000
                 GWF =163964637066.3443                   GWF =          63.5201
         EVAPORATION =           0.0000           EVAPORATION =           0.0000
         EXT-OUTFLOW =169912817699.4125           EXT-OUTFLOW =         122.1936

           TOTAL OUT =333877454765.7567             TOTAL OUT =         185.7136

            IN - OUT =           0.0000              IN - OUT =           0.0000

 PERCENT DISCREPANCY =           0.00     PERCENT DISCREPANCY =           0.00



  VOLUME BUDGET FOR ENTIRE MODEL AT END OF TIME STEP   30, STRESS PERIOD   2
  ---------------------------------------------------------------------------------------------------

     CUMULATIVE VOLUME      L**3       RATES FOR THIS TIME STEP      L**3/T          PACKAGE NAME    
     ------------------                 ------------------------                     ----------------

           IN:                                      IN:
           ---                                      ---
              STO-SS =   258189090.0212                STO-SS =           0.0000     STORAGE         
              STO-SY = 30604404446.3969                STO-SY =           0.0000     STORAGE         
                 WEL =           0.0000                   WEL =           0.0000     WEL-1           
                 GHB =   460661183.3094                   GHB =           0.2550     GHB-1           
                 RCH =  3230328849.2209                   RCH =           1.7938     RCH-1           
                 EVT =           0.0000                   EVT =           0.0000     EVT-1           
                 SFR =163964636913.6766                   SFR =          63.5201     SFR-1           

            TOTAL IN =198518220482.6249              TOTAL IN =          65.5688

          OUT:                                     OUT:
          ----                                     ----
              STO-SS =   118259288.4274                STO-SS =           0.4188     STORAGE         
              STO-SY = 14911933528.5459                STO-SY =          49.3595     STORAGE         
                 WEL =157788000000.0000                   WEL =           0.0000     WEL-1           
                 GHB =   324311144.7831                   GHB =           0.1887     GHB-1           
                 RCH =           0.0000                   RCH =           0.0000     RCH-1           
                 EVT = 24661098103.1736                   EVT =          14.8882     EVT-1           
                 SFR =   714618482.8328                   SFR =           0.7136     SFR-1           

           TOTAL OUT =198518220547.7629             TOTAL OUT =          65.5688

            IN - OUT =         -65.1379              IN - OUT =      -1.8919E-09

 PERCENT DISCREPANCY =          -0.00     PERCENT DISCREPANCY =          -0.00




         TIME SUMMARY AT END OF TIME STEP   30 IN STRESS PERIOD    2
                    SECONDS     MINUTES      HOURS       DAYS        YEARS
                    -----------------------------------------------------------
   TIME STEP LENGTH 2.15052E+07 3.58420E+05  5973.7      248.90     0.68146    
 STRESS PERIOD TIME 2.23000E+08 3.71667E+06  61944.      2581.0      7.0664    
         TOTAL TIME 1.80088E+09 3.00147E+07 5.00244E+05  20844.      57.066    
 UBDSV1 SAVING           STO-SS ON UNIT   1022 AT TIME STEP     35, STRESS PERIOD      2
 UBDSV1 SAVING           STO-SY ON UNIT   1022 AT TIME STEP     35, STRESS PERIOD      2
 UBDSV1 SAVING     FLOW-JA-FACE ON UNIT   1022 AT TIME STEP     35, STRESS PERIOD      2
 UBDSV06 SAVING              WEL IN MODEL GWF_1            PACKAGE GWF_1           CONNECTED TO MODEL GWF_1            PACKAGE WEL-1            ON UNIT   1022 AT TIME STEP     35, STRESS PERIOD      2
 UBDSV06 SAVING              GHB IN MODEL GWF_1            PACKAGE GWF_1           CONNECTED TO MODEL GWF_1            PACKAGE GHB-1            ON UNIT   1022 AT TIME STEP     35, STRESS PERIOD      2
 UBDSV06 SAVING              RCH IN MODEL GWF_1            PACKAGE GWF_1           CONNECTED TO MODEL GWF_1            PACKAGE RCH-1            ON UNIT   1022 AT TIME STEP     35, STRESS PERIOD      2
 UBDSV06 SAVING              EVT IN MODEL GWF_1            PACKAGE GWF_1           CONNECTED TO MODEL GWF_1            PACKAGE EVT-1            ON UNIT   1022 AT TIME STEP     35, STRESS PERIOD      2
 UBDSV06 SAVING              SFR IN MODEL GWF_1            PACKAGE GWF_1           CONNECTED TO MODEL GWF_1            PACKAGE SFR-1            ON UNIT   1022 AT TIME STEP     35, STRESS PERIOD      2

              SFR (SFR-1)   PERIOD 2   STEP 35
 BOUNDARY        1  CELL              (1,1,1)   RATE     2.27027    
 BOUNDARY        2  CELL              (1,2,2)   RATE     3.45685    
 BOUNDARY        3  CELL              (1,3,3)   RATE     2.88787    
 BOUNDARY        4  CELL              (1,3,4)   RATE     2.60696    
 BOUNDARY        5  CELL              (1,4,5)   RATE     2.72090    
 BOUNDARY        6  CELL              (1,5,6)   RATE     2.00960    
 BOUNDARY        7  CELL              (1,6,6)   RATE     1.91716    
 BOUNDARY        8  CELL              (1,7,6)   RATE    0.241369    
 BOUNDARY        9  CELL              (1,8,6)   RATE     0.00000    
 BOUNDARY       10  CELL              (1,3,5)   RATE     2.00017    
 BOUNDARY       11  CELL              (1,3,6)   RATE     1.89314    
 BOUNDARY       12  CELL              (1,3,7)   RATE     1.59908    
 BOUNDARY       13  CELL              (1,4,8)   RATE     1.39664    
 BOUNDARY       14  CELL              (1,5,8)   RATE     0.00000    
 BOUNDARY       15  CELL              (1,6,8)   RATE     0.00000    
 BOUNDARY       16  CELL             (1,5,10)   RATE    0.905253    
 BOUNDARY       17  CELL              (1,5,9)   RATE     1.78348    
 BOUNDARY       18  CELL              (1,6,8)   RATE     1.22572    
 BOUNDARY       19  CELL              (1,6,8)   RATE     2.03898    
 BOUNDARY       20  CELL              (1,7,7)   RATE     2.46004    
 BOUNDARY       21  CELL              (1,8,7)   RATE     1.58653    
 BOUNDARY       22  CELL              (1,8,6)   RATE     0.00000    
 BOUNDARY       23  CELL              (1,9,6)   RATE     0.00000    
 BOUNDARY       24  CELL             (1,10,7)   RATE     0.00000    
 BOUNDARY       25  CELL             (1,11,7)   RATE     0.00000    
 BOUNDARY       26  CELL             (1,12,7)   RATE     0.00000    
 BOUNDARY       27  CELL             (1,13,7)   RATE   -0.385420    
 BOUNDARY       28  CELL             (1,14,9)   RATE     2.87709    
 BOUNDARY       29  CELL             (1,13,8)   RATE     4.63768    
 BOUNDARY       30  CELL             (1,13,7)   RATE     5.76133    
 BOUNDARY       31  CELL             (1,13,6)   RATE     4.04907    
 BOUNDARY       32  CELL             (1,13,5)   RATE     1.68821    
 BOUNDARY       33  CELL             (1,13,4)   RATE   -0.384090    
 BOUNDARY       34  CELL             (1,13,3)   RATE    -1.42501    
 BOUNDARY       35  CELL             (1,13,2)   RATE   -0.776649    
 BOUNDARY       36  CELL             (1,13,1)   RATE    0.304174    

 UBDSV06 SAVING     FLOW-JA-FACE IN MODEL GWF_1            PACKAGE SFR-1           CONNECTED TO MODEL GWF_1            PACKAGE SFR-1            ON UNIT   1019 AT TIME STEP     35, STRESS PERIOD      2
 UBDSV06 SAVING              GWF IN MODEL GWF_1            PACKAGE SFR-1           CONNECTED TO MODEL GWF_1            PACKAGE GWF_1            ON UNIT   1019 AT TIME STEP     35, STRESS PERIOD      2
 UBDSV06 SAVING       EXT-INFLOW IN MODEL GWF_1            PACKAGE SFR-1           CONNECTED TO MODEL GWF_1            PACKAGE SFR-1            ON UNIT   1019 AT TIME STEP     35, STRESS PERIOD      2
 UBDSV06 SAVING         RAINFALL IN MODEL GWF_1            PACKAGE SFR-1           CONNECTED TO MODEL GWF_1            PACKAGE SFR-1            ON UNIT   1019 AT TIME STEP     35, STRESS PERIOD      2
 UBDSV06 SAVING           RUNOFF IN MODEL GWF_1            PACKAGE SFR-1           CONNECTED TO MODEL GWF_1            PACKAGE SFR-1            ON UNIT   1019 AT TIME STEP     35, STRESS PERIOD      2
 UBDSV06 SAVING      EVAPORATION IN MODEL GWF_1            PACKAGE SFR-1           CONNECTED TO MODEL GWF_1            PACKAGE SFR-1            ON UNIT   1019 AT TIME STEP     35, STRESS PERIOD      2
 UBDSV06 SAVING      EXT-OUTFLOW IN MODEL GWF_1            PACKAGE SFR-1           CONNECTED TO MODEL GWF_1            PACKAGE SFR-1            ON UNIT   1019 AT TIME STEP     35, STRESS PERIOD      2
1
  HEAD IN LAYER   1 AT END OF TIME STEP  35 IN STRESS PERIOD    2
  ---------------------------------------------------------------------------

            1           2           3           4           5           6           7           8           9          10
 ........................................................................................................................
   1    1069.       1058.      1.0000E+30  1.0000E+30  1.0000E+30  1.0000E+30  1.0000E+30  1.0000E+30  1.0000E+30  1.0000E+30
   2    1057.       1053.       1044.      1.0000E+30  1.0000E+30   1029.       1027.       1023.      1.0000E+30  1.0000E+30
   3   1.0000E+30   1041.       1040.       1037.       1038.       1036.       1035.       1029.      1.0000E+30  1.0000E+30
   4    1018.       1028.       1032.       1032.       1031.       1030.       1030.       1032.       1026.      1.0000E+30
   5    1014.       1021.       1026.       1027.       1028.       1028.       1027.       1028.       1029.       1028.    
   6    1009.       1017.       1022.       1024.       1025.       1026.       1026.       1028.       1025.       1020.    
   7    1007.       1014.       1019.       1022.       1023.       1024.       1025.       1025.       1020.      1.0000E+30
   8   1.0000E+30   1014.       1018.       1020.       1021.       1022.       1023.       1021.       1015.      1.0000E+30
   9   1.0000E+30   1013.       1016.       1018.       1019.       1020.       1020.       1019.       1014.      1.0000E+30
  10   1.0000E+30   1012.       1015.       1017.       1018.       1019.       1020.       1019.       1017.       1013.    
  11   1.0000E+30   1009.       1012.       1015.       1017.       1019.       1020.       1021.       1022.      1.0000E+30
  12    997.9       1004.       1009.       1013.       1017.       1020.       1022.       1026.       1029.      1.0000E+30
  13    993.1       998.4       1005.       1011.       1017.       1022.       1028.       1033.       1035.      1.0000E+30
  14   1.0000E+30   1002.       1007.       1011.       1017.       1022.       1028.       1034.       1038.      1.0000E+30
  15   1.0000E+30  1.0000E+30   1010.       1013.       1017.       1020.      1.0000E+30  1.0000E+30  1.0000E+30  1.0000E+30

 HEAD WILL BE SAVED ON UNIT 1021 AT END OF TIME STEP   35, STRESS PERIOD    2



 SFR (SFR-1) FLOWS   PERIOD      2   STEP       35
 ----------------------------------------------------------------------------------------------------------------------------------------------------
 REACH  REACH                 EXTERNAL      REACH       REACH       REACH       REACH       REACH       REACH     EXTERNAL      REACH      PERCENT   
  NO.   (LAYER,ROW,COLUMN)     INFLOW      INFLOW     RAINFALL     RUNOFF      LEAKAGE   EVAPORATION   OUTFLOW     OUTFLOW    IN - OUT   DIFFERENCE  
 ----------------------------------------------------------------------------------------------------------------------------------------------------
      1 (1,1,1)                25.00       0.000       0.000       0.000      -2.270       0.000      -22.73       0.000       0.000       0.000     
      2 (1,2,2)                0.000       22.73       0.000       0.000      -3.457       0.000      -19.27       0.000       0.000       0.000     
      3 (1,3,3)                0.000       19.27       0.000       0.000      -2.888       0.000      -16.39       0.000       0.000       0.000     
      4 (1,3,4)                0.000       16.39       0.000       0.000      -2.607       0.000      -13.78       0.000       0.000       0.000     
      5 (1,4,5)                0.000       6.889       0.000       0.000      -2.721       0.000      -4.168       0.000       0.000       0.000     
      6 (1,5,6)                0.000       4.168       0.000       0.000      -2.010       0.000      -2.159       0.000       0.000       0.000     
      7 (1,6,6)                0.000       2.159       0.000       0.000      -1.917       0.000     -0.2414       0.000       0.000       0.000     
      8 (1,7,6)                0.000      0.2414       0.000       0.000     -0.2414       0.000       0.000       0.000       0.000       0.000     
      9 (1,8,6)                0.000       0.000       0.000       0.000       0.000       0.000       0.000       0.000       0.000       0.000     
     10 (1,3,5)                0.000       6.889       0.000       0.000      -2.000       0.000      -4.889       0.000       0.000       0.000     
     11 (1,3,6)                0.000       4.889       0.000       0.000      -1.893       0.000      -2.996       0.000       0.000       0.000     
     12 (1,3,7)                0.000       2.996       0.000       0.000      -1.599       0.000      -1.397       0.000       0.000       0.000     
     13 (1,4,8)                0.000       1.397       0.000       0.000      -1.397       0.000       0.000       0.000       0.000       0.000     
     14 (1,5,8)                0.000       0.000       0.000       0.000       0.000       0.000       0.000       0.000       0.000       0.000     
     15 (1,6,8)                0.000       0.000       0.000       0.000       0.000       0.000       0.000       0.000       0.000       0.000     
     16 (1,5,10)               10.00       0.000       0.000       0.000     -0.9053       0.000      -9.095       0.000       0.000       0.000     
     17 (1,5,9)                0.000       9.095       0.000       0.000      -1.783       0.000      -7.311       0.000       0.000       0.000     
     18 (1,6,8)                0.000       7.311       0.000       0.000      -1.226       0.000      -6.086       0.000       0.000       0.000     
     19 (1,6,8)                0.000       6.086       0.000       0.000      -2.039       0.000      -4.047       0.000       0.000       0.000     
     20 (1,7,7)                0.000       4.047       0.000       0.000      -2.460       0.000      -1.587       0.000       0.000       0.000     
     21 (1,8,7)                0.000       1.587       0.000       0.000      -1.587       0.000       0.000       0.000       0.000       0.000     
     22 (1,8,6)                0.000       0.000       0.000       0.000       0.000       0.000       0.000       0.000       0.000       0.000     
     23 (1,9,6)                0.000       0.000       0.000       0.000       0.000       0.000       0.000       0.000       0.000       0.000     
     24 (1,10,7)               0.000       0.000       0.000       0.000       0.000       0.000       0.000       0.000       0.000       0.000     
     25 (1,11,7)               0.000       0.000       0.000       0.000       0.000       0.000       0.000       0.000       0.000       0.000     
     26 (1,12,7)               0.000       0.000       0.000       0.000       0.000       0.000       0.000       0.000       0.000       0.000     
     27 (1,13,7)               0.000       0.000       0.000       0.000      0.3854       0.000     -0.3854       0.000       0.000       0.000     
     28 (1,14,9)               150.0       0.000       0.000       0.000      -2.877       0.000      -147.1       0.000       0.000       0.000     
     29 (1,13,8)               0.000       147.1       0.000       0.000      -4.638       0.000      -142.5       0.000       0.000       0.000     
     30 (1,13,7)               0.000       142.5       0.000       0.000      -5.761       0.000      -136.7       0.000       0.000       0.000     
     31 (1,13,6)               0.000       137.1       0.000       0.000      -4.049       0.000      -133.1       0.000       0.000       0.000     
     32 (1,13,5)               0.000       133.1       0.000       0.000      -1.688       0.000      -131.4       0.000       0.000       0.000     
     33 (1,13,4)               0.000       131.4       0.000       0.000      0.3841       0.000      -131.8       0.000       0.000       0.000     
     34 (1,13,3)               0.000       131.8       0.000       0.000       1.425       0.000      -133.2       0.000       0.000       0.000     
     35 (1,13,2)               0.000       133.2       0.000       0.000      0.7766       0.000      -134.0       0.000       0.000       0.000     
     36 (1,13,1)               0.000       134.0       0.000       0.000     -0.3042       0.000       0.000      -133.7       0.000       0.000     


  SFR-1 BUDGET FOR ENTIRE MODEL AT END OF TIME STEP   35, STRESS PERIOD   2
  ------------------------------------------------------------------------------

     CUMULATIVE SFR-1      L**3       RATES FOR THIS TIME STEP      L**3/T
     ------------------                 ------------------------

           IN:                                      IN:
           ---                                      ---
          EXT-INFLOW =359880604728.3474            EXT-INFLOW =         185.0000
            RAINFALL =           0.0000              RAINFALL =           0.0000
              RUNOFF =           0.0000                RUNOFF =           0.0000
                 GWF =  1003034900.6096                   GWF =           2.9712
         EVAPORATION =           0.0000           EVAPORATION =           0.0000
         EXT-OUTFLOW =           0.0000           EXT-OUTFLOW =           0.0000

            TOTAL IN =360883639628.9570              TOTAL IN =         187.9712

          OUT:                                     OUT:
          ----                                     ----
          EXT-INFLOW =           0.0000            EXT-INFLOW =           0.0000
            RAINFALL =           0.0000              RAINFALL =           0.0000
              RUNOFF =           0.0000                RUNOFF =           0.0000
                 GWF =172266489076.2249                   GWF =          54.3176
         EVAPORATION =           0.0000           EVAPORATION =           0.0000
         EXT-OUTFLOW =188617150552.7323           EXT-OUTFLOW =         133.6536

           TOTAL OUT =360883639628.9572             TOTAL OUT =         187.9712

            IN - OUT =      -1.2207E-04              IN - OUT =       2.8422E-14

 PERCENT DISCREPANCY =          -0.00     PERCENT DISCREPANCY =           0.00



  VOLUME BUDGET FOR ENTIRE MODEL AT END OF TIME STEP   35, STRESS PERIOD   2
  ---------------------------------------------------------------------------------------------------

     CUMULATIVE VOLUME      L**3       RATES FOR THIS TIME STEP      L**3/T          PACKAGE NAME    
     ------------------                 ------------------------                     ----------------

           IN:                                      IN:
           ---                                      ---
              STO-SS =   258189090.0212                STO-SS =           0.0000     STORAGE         
              STO-SY = 30604404446.3969                STO-SY =           0.0000     STORAGE         
                 WEL =           0.0000                   WEL =           0.0000     WEL-1           
                 GHB =   497404517.5650                   GHB =           0.2541     GHB-1           
                 RCH =  3489382890.4404                   RCH =           1.7938     RCH-1           
                 EVT =           0.0000                   EVT =           0.0000     EVT-1           
                 SFR =172266488919.5488                   SFR =          54.3176     SFR-1           

            TOTAL IN =207115869863.9723              TOTAL IN =          56.3654

          OUT:                                     OUT:
          ----                                     ----
              STO-SS =   169942213.1343                STO-SS =           0.3206     STORAGE         
              STO-SY = 20871622734.6841                STO-SY =          36.5096     STORAGE         
                 WEL =157788000000.0000                   WEL =           0.0000     WEL-1           
                 GHB =   351929444.6846                   GHB =           0.1927     GHB-1           
                 RCH =           0.0000                   RCH =           0.0000     RCH-1           
                 EVT = 26931340895.9097                   EVT =          16.3713     EVT-1           
                 SFR =  1003034640.5927                   SFR =           2.9712     SFR-1           

           TOTAL OUT =207115869929.0054             TOTAL OUT =          56.3654

            IN - OUT =         -65.0331              IN - OUT =       1.8632E-08

 PERCENT DISCREPANCY =          -0.00     PERCENT DISCREPANCY =           0.00




         TIME SUMMARY AT END OF TIME STEP   35 IN STRESS PERIOD    2
                    SECONDS     MINUTES      HOURS       DAYS        YEARS
                    -----------------------------------------------------------
   TIME STEP LENGTH 3.46343E+07 5.77238E+05  9620.6      400.86      1.0975    
 STRESS PERIOD TIME 3.67421E+08 6.12368E+06 1.02061E+05  4252.6      11.643    
         TOTAL TIME 1.94530E+09 3.24217E+07 5.40361E+05  22515.      61.643    
 UBDSV1 SAVING           STO-SS ON UNIT   1022 AT TIME STEP     40, STRESS PERIOD      2
 UBDSV1 SAVING           STO-SY ON UNIT   1022 AT TIME STEP     40, STRESS PERIOD      2
 UBDSV1 SAVING     FLOW-JA-FACE ON UNIT   1022 AT TIME STEP     40, STRESS PERIOD      2
 UBDSV06 SAVING              WEL IN MODEL GWF_1            PACKAGE GWF_1           CONNECTED TO MODEL GWF_1            PACKAGE WEL-1            ON UNIT   1022 AT TIME STEP     40, STRESS PERIOD      2
 UBDSV06 SAVING              GHB IN MODEL GWF_1            PACKAGE GWF_1           CONNECTED TO MODEL GWF_1            PACKAGE GHB-1            ON UNIT   1022 AT TIME STEP     40, STRESS PERIOD      2
 UBDSV06 SAVING              RCH IN MODEL GWF_1            PACKAGE GWF_1           CONNECTED TO MODEL GWF_1            PACKAGE RCH-1            ON UNIT   1022 AT TIME STEP     40, STRESS PERIOD      2
 UBDSV06 SAVING              EVT IN MODEL GWF_1            PACKAGE GWF_1           CONNECTED TO MODEL GWF_1            PACKAGE EVT-1            ON UNIT   1022 AT TIME STEP     40, STRESS PERIOD      2
 UBDSV06 SAVING              SFR IN MODEL GWF_1            PACKAGE GWF_1           CONNECTED TO MODEL GWF_1            PACKAGE SFR-1            ON UNIT   1022 AT TIME STEP     40, STRESS PERIOD      2

              SFR (SFR-1)   PERIOD 2   STEP 40
 BOUNDARY        1  CELL              (1,1,1)   RATE     2.27027    
 BOUNDARY        2  CELL              (1,2,2)   RATE     3.45685    
 BOUNDARY        3  CELL              (1,3,3)   RATE     2.88787    
 BOUNDARY        4  CELL              (1,3,4)   RATE     2.60696    
 BOUNDARY        5  CELL              (1,4,5)   RATE     2.72090    
 BOUNDARY        6  CELL              (1,5,6)   RATE     2.00960    
 BOUNDARY        7  CELL              (1,6,6)   RATE     1.91716    
 BOUNDARY        8  CELL              (1,7,6)   RATE    0.241369    
 BOUNDARY        9  CELL              (1,8,6)   RATE     0.00000    
 BOUNDARY       10  CELL              (1,3,5)   RATE     2.00017    
 BOUNDARY       11  CELL              (1,3,6)   RATE     1.89314    
 BOUNDARY       12  CELL              (1,3,7)   RATE     1.59908    
 BOUNDARY       13  CELL              (1,4,8)   RATE     1.39664    
 BOUNDARY       14  CELL              (1,5,8)   RATE     0.00000    
 BOUNDARY       15  CELL              (1,6,8)   RATE     0.00000    
 BOUNDARY       16  CELL             (1,5,10)   RATE    0.905253    
 BOUNDARY       17  CELL              (1,5,9)   RATE     1.78348    
 BOUNDARY       18  CELL              (1,6,8)   RATE     1.22572    
 BOUNDARY       19  CELL              (1,6,8)   RATE     2.03898    
 BOUNDARY       20  CELL              (1,7,7)   RATE     2.46004    
 BOUNDARY       21  CELL              (1,8,7)   RATE     1.58653    
 BOUNDARY       22  CELL              (1,8,6)   RATE     0.00000    
 BOUNDARY       23  CELL              (1,9,6)   RATE     0.00000    
 BOUNDARY       24  CELL             (1,10,7)   RATE     0.00000    
 BOUNDARY       25  CELL             (1,11,7)   RATE     0.00000    
 BOUNDARY       26  CELL             (1,12,7)   RATE     0.00000    
 BOUNDARY       27  CELL             (1,13,7)   RATE   -0.462722    
 BOUNDARY       28  CELL             (1,14,9)   RATE     2.75966    
 BOUNDARY       29  CELL             (1,13,8)   RATE     4.09859    
 BOUNDARY       30  CELL             (1,13,7)   RATE     3.99179    
 BOUNDARY       31  CELL             (1,13,6)   RATE     1.96567    
 BOUNDARY       32  CELL             (1,13,5)   RATE   -0.685716    
 BOUNDARY       33  CELL             (1,13,4)   RATE    -2.50076    
 BOUNDARY       34  CELL             (1,13,3)   RATE    -2.80935    
 BOUNDARY       35  CELL             (1,13,2)   RATE    -1.16661    
 BOUNDARY       36  CELL             (1,13,1)   RATE    0.221748    

 UBDSV06 SAVING     FLOW-JA-FACE IN MODEL GWF_1            PACKAGE SFR-1           CONNECTED TO MODEL GWF_1            PACKAGE SFR-1            ON UNIT   1019 AT TIME STEP     40, STRESS PERIOD      2
 UBDSV06 SAVING              GWF IN MODEL GWF_1            PACKAGE SFR-1           CONNECTED TO MODEL GWF_1            PACKAGE GWF_1            ON UNIT   1019 AT TIME STEP     40, STRESS PERIOD      2
 UBDSV06 SAVING       EXT-INFLOW IN MODEL GWF_1            PACKAGE SFR-1           CONNECTED TO MODEL GWF_1            PACKAGE SFR-1            ON UNIT   1019 AT TIME STEP     40, STRESS PERIOD      2
 UBDSV06 SAVING         RAINFALL IN MODEL GWF_1            PACKAGE SFR-1           CONNECTED TO MODEL GWF_1            PACKAGE SFR-1            ON UNIT   1019 AT TIME STEP     40, STRESS PERIOD      2
 UBDSV06 SAVING           RUNOFF IN MODEL GWF_1            PACKAGE SFR-1           CONNECTED TO MODEL GWF_1            PACKAGE SFR-1            ON UNIT   1019 AT TIME STEP     40, STRESS PERIOD      2
 UBDSV06 SAVING      EVAPORATION IN MODEL GWF_1            PACKAGE SFR-1           CONNECTED TO MODEL GWF_1            PACKAGE SFR-1            ON UNIT   1019 AT TIME STEP     40, STRESS PERIOD      2
 UBDSV06 SAVING      EXT-OUTFLOW IN MODEL GWF_1            PACKAGE SFR-1           CONNECTED TO MODEL GWF_1            PACKAGE SFR-1            ON UNIT   1019 AT TIME STEP     40, STRESS PERIOD      2
1
  HEAD IN LAYER   1 AT END OF TIME STEP  40 IN STRESS PERIOD    2
  ---------------------------------------------------------------------------

            1           2           3           4           5           6           7           8           9          10
 ........................................................................................................................
   1    1090.       1082.      1.0000E+30  1.0000E+30  1.0000E+30  1.0000E+30  1.0000E+30  1.0000E+30  1.0000E+30  1.0000E+30
   2    1082.       1078.       1070.      1.0000E+30  1.0000E+30   1058.       1057.       1055.      1.0000E+30  1.0000E+30
   3   1.0000E+30   1067.       1065.       1062.       1061.       1061.       1061.       1057.      1.0000E+30  1.0000E+30
   4    1049.       1055.       1057.       1055.       1055.       1053.       1054.       1056.       1053.      1.0000E+30
   5    1045.       1047.       1050.       1050.       1050.       1051.       1050.       1051.       1053.       1054.    
   6    1040.       1042.       1044.       1046.       1046.       1047.       1048.       1050.       1050.       1050.    
   7    1037.       1038.       1040.       1041.       1042.       1043.       1045.       1047.       1045.      1.0000E+30
   8   1.0000E+30   1034.       1036.       1037.       1038.       1039.       1040.       1041.       1038.      1.0000E+30
   9   1.0000E+30   1029.       1031.       1032.       1033.       1034.       1035.       1034.       1033.      1.0000E+30
  10   1.0000E+30   1024.       1026.       1028.       1029.       1030.       1030.       1030.       1030.       1029.    
  11   1.0000E+30   1017.       1019.       1023.       1025.       1026.       1027.       1028.       1030.      1.0000E+30
  12    999.2       1007.       1012.       1017.       1021.       1023.       1026.       1028.       1032.      1.0000E+30
  13    993.2       998.5       1005.       1011.       1017.       1023.       1028.       1033.       1035.      1.0000E+30
  14   1.0000E+30   1003.       1007.       1012.       1017.       1023.       1028.       1034.       1038.      1.0000E+30
  15   1.0000E+30  1.0000E+30   1010.       1013.       1017.       1021.      1.0000E+30  1.0000E+30  1.0000E+30  1.0000E+30

 HEAD WILL BE SAVED ON UNIT 1021 AT END OF TIME STEP   40, STRESS PERIOD    2



 SFR (SFR-1) FLOWS   PERIOD      2   STEP       40
 ----------------------------------------------------------------------------------------------------------------------------------------------------
 REACH  REACH                 EXTERNAL      REACH       REACH       REACH       REACH       REACH       REACH     EXTERNAL      REACH      PERCENT   
  NO.   (LAYER,ROW,COLUMN)     INFLOW      INFLOW     RAINFALL     RUNOFF      LEAKAGE   EVAPORATION   OUTFLOW     OUTFLOW    IN - OUT   DIFFERENCE  
 ----------------------------------------------------------------------------------------------------------------------------------------------------
      1 (1,1,1)                25.00       0.000       0.000       0.000      -2.270       0.000      -22.73       0.000       0.000       0.000     
      2 (1,2,2)                0.000       22.73       0.000       0.000      -3.457       0.000      -19.27       0.000       0.000       0.000     
      3 (1,3,3)                0.000       19.27       0.000       0.000      -2.888       0.000      -16.39       0.000       0.000       0.000     
      4 (1,3,4)                0.000       16.39       0.000       0.000      -2.607       0.000      -13.78       0.000       0.000       0.000     
      5 (1,4,5)                0.000       6.889       0.000       0.000      -2.721       0.000      -4.168       0.000       0.000       0.000     
      6 (1,5,6)                0.000       4.168       0.000       0.000      -2.010       0.000      -2.159       0.000       0.000       0.000     
      7 (1,6,6)                0.000       2.159       0.000       0.000      -1.917       0.000     -0.2414       0.000       0.000       0.000     
      8 (1,7,6)                0.000      0.2414       0.000       0.000     -0.2414       0.000       0.000       0.000       0.000       0.000     
      9 (1,8,6)                0.000       0.000       0.000       0.000       0.000       0.000       0.000       0.000       0.000       0.000     
     10 (1,3,5)                0.000       6.889       0.000       0.000      -2.000       0.000      -4.889       0.000       0.000       0.000     
     11 (1,3,6)                0.000       4.889       0.000       0.000      -1.893       0.000      -2.996       0.000       0.000       0.000     
     12 (1,3,7)                0.000       2.996       0.000       0.000      -1.599       0.000      -1.397       0.000       0.000       0.000     
     13 (1,4,8)                0.000       1.397       0.000       0.000      -1.397       0.000       0.000       0.000       0.000       0.000     
     14 (1,5,8)                0.000       0.000       0.000       0.000       0.000       0.000       0.000       0.000       0.000       0.000     
     15 (1,6,8)                0.000       0.000       0.000       0.000       0.000       0.000       0.000       0.000       0.000       0.000     
     16 (1,5,10)               10.00       0.000       0.000       0.000     -0.9053       0.000      -9.095       0.000       0.000       0.000     
     17 (1,5,9)                0.000       9.095       0.000       0.000      -1.783       0.000      -7.311       0.000       0.000       0.000     
     18 (1,6,8)                0.000       7.311       0.000       0.000      -1.226       0.000      -6.086       0.000       0.000       0.000     
     19 (1,6,8)                0.000       6.086       0.000       0.000      -2.039       0.000      -4.047       0.000       0.000       0.000     
     20 (1,7,7)                0.000       4.047       0.000       0.000      -2.460       0.000      -1.587       0.000       0.000       0.000     
     21 (1,8,7)                0.000       1.587       0.000       0.000      -1.587       0.000       0.000       0.000       0.000       0.000     
     22 (1,8,6)                0.000       0.000       0.000       0.000       0.000       0.000       0.000       0.000       0.000       0.000     
     23 (1,9,6)                0.000       0.000       0.000       0.000       0.000       0.000       0.000       0.000       0.000       0.000     
     24 (1,10,7)               0.000       0.000       0.000       0.000       0.000       0.000       0.000       0.000       0.000       0.000     
     25 (1,11,7)               0.000       0.000       0.000       0.000       0.000       0.000       0.000       0.000       0.000       0.000     
     26 (1,12,7)               0.000       0.000       0.000       0.000       0.000       0.000       0.000       0.000       0.000       0.000     
     27 (1,13,7)               0.000       0.000       0.000       0.000      0.4627       0.000     -0.4627       0.000       0.000       0.000     
     28 (1,14,9)               150.0       0.000       0.000       0.000      -2.760       0.000      -147.2       0.000       0.000       0.000     
     29 (1,13,8)               0.000       147.2       0.000       0.000      -4.099       0.000      -143.1       0.000       0.000       0.000     
     30 (1,13,7)               0.000       143.1       0.000       0.000      -3.992       0.000      -139.1       0.000       0.000       0.000     
     31 (1,13,6)               0.000       139.6       0.000       0.000      -1.966       0.000      -137.6       0.000       0.000       0.000     
     32 (1,13,5)               0.000       137.6       0.000       0.000      0.6857       0.000      -138.3       0.000       0.000       0.000     
     33 (1,13,4)               0.000       138.3       0.000       0.000       2.501       0.000      -140.8       0.000       0.000       0.000     
     34 (1,13,3)               0.000       140.8       0.000       0.000       2.809       0.000      -143.6       0.000       0.000       0.000     
     35 (1,13,2)               0.000       143.6       0.000       0.000       1.167       0.000      -144.8       0.000       0.000       0.000     
     36 (1,13,1)               0.000       144.8       0.000       0.000     -0.2217       0.000       0.000      -144.6       0.000       0.000     


  SFR-1 BUDGET FOR ENTIRE MODEL AT END OF TIME STEP   40, STRESS PERIOD   2
  ------------------------------------------------------------------------------

     CUMULATIVE SFR-1      L**3       RATES FOR THIS TIME STEP      L**3/T
     ------------------                 ------------------------

           IN:                                      IN:
           ---                                      ---
          EXT-INFLOW =402909838415.3215            EXT-INFLOW =         185.0000
            RAINFALL =           0.0000              RAINFALL =           0.0000
              RUNOFF =           0.0000                RUNOFF =           0.0000
                 GWF =  2339257245.8992                   GWF =           7.6252
         EVAPORATION =           0.0000           EVAPORATION =           0.0000
         EXT-OUTFLOW =           0.0000           EXT-OUTFLOW =           0.0000

            TOTAL IN =405249095661.2206              TOTAL IN =         192.6252

          OUT:                                     OUT:
          ----                                     ----
          EXT-INFLOW =           0.0000            EXT-INFLOW =           0.0000
            RAINFALL =           0.0000              RAINFALL =           0.0000
              RUNOFF =           0.0000                RUNOFF =           0.0000
                 GWF =183899584539.6746                   GWF =          48.0375
         EVAPORATION =           0.0000           EVAPORATION =           0.0000
         EXT-OUTFLOW =221349511121.5461           EXT-OUTFLOW =         144.5877

           TOTAL OUT =405249095661.2206             TOTAL OUT =         192.6252

            IN - OUT =           0.0000              IN - OUT =      -2.8422E-14

 PERCENT DISCREPANCY =           0.00     PERCENT DISCREPANCY =          -0.00



  VOLUME BUDGET FOR ENTIRE MODEL AT END OF TIME STEP   40, STRESS PERIOD   2
  ---------------------------------------------------------------------------------------------------

     CUMULATIVE VOLUME      L**3       RATES FOR THIS TIME STEP      L**3/T          PACKAGE NAME    
     ------------------                 ------------------------                     ----------------

           IN:                                      IN:
           ---                                      ---
              STO-SS =   258189090.0212                STO-SS =           0.0000     STORAGE         
              STO-SY = 30604404446.3969                STO-SY =           0.0000     STORAGE         
                 WEL =           0.0000                   WEL =           0.0000     WEL-1           
                 GHB =   556379267.0918                   GHB =           0.2533     GHB-1           
                 RCH =  3906592014.3648                   RCH =           1.7938     RCH-1           
                 EVT =           0.0000                   EVT =           0.0000     EVT-1           
                 SFR =183899584104.6198                   SFR =          48.0375     SFR-1           

            TOTAL IN =219225148922.4944              TOTAL IN =          50.0845

          OUT:                                     OUT:
          ----                                     ----
              STO-SS =   227464996.1642                STO-SS =           0.2034     STORAGE         
              STO-SY = 27311703358.2463                STO-SY =          22.5187     STORAGE         
                 WEL =157788000000.0000                   WEL =           0.0000     WEL-1           
                 GHB =   397299406.9981                   GHB =           0.1964     GHB-1           
                 RCH =           0.0000                   RCH =           0.0000     RCH-1           
                 EVT = 31161424005.6249                   EVT =          19.5408     EVT-1           
                 SFR =  2339257183.4118                   SFR =           7.6252     SFR-1           

           TOTAL OUT =219225148950.4453             TOTAL OUT =          50.0845

            IN - OUT =         -27.9509              IN - OUT =      -1.9499E-07

 PERCENT DISCREPANCY =          -0.00     PERCENT DISCREPANCY =          -0.00




         TIME SUMMARY AT END OF TIME STEP   40 IN STRESS PERIOD    2
                    SECONDS     MINUTES      HOURS       DAYS        YEARS
                    -----------------------------------------------------------
   TIME STEP LENGTH 5.57789E+07 9.29648E+05  15494.      645.59      1.7675    
 STRESS PERIOD TIME 6.00011E+08 1.00002E+07 1.66670E+05  6944.6      19.013    
         TOTAL TIME 2.17789E+09 3.62982E+07 6.04970E+05  25207.      69.013    
 UBDSV1 SAVING           STO-SS ON UNIT   1022 AT TIME STEP     45, STRESS PERIOD      2
 UBDSV1 SAVING           STO-SY ON UNIT   1022 AT TIME STEP     45, STRESS PERIOD      2
 UBDSV1 SAVING     FLOW-JA-FACE ON UNIT   1022 AT TIME STEP     45, STRESS PERIOD      2
 UBDSV06 SAVING              WEL IN MODEL GWF_1            PACKAGE GWF_1           CONNECTED TO MODEL GWF_1            PACKAGE WEL-1            ON UNIT   1022 AT TIME STEP     45, STRESS PERIOD      2
 UBDSV06 SAVING              GHB IN MODEL GWF_1            PACKAGE GWF_1           CONNECTED TO MODEL GWF_1            PACKAGE GHB-1            ON UNIT   1022 AT TIME STEP     45, STRESS PERIOD      2
 UBDSV06 SAVING              RCH IN MODEL GWF_1            PACKAGE GWF_1           CONNECTED TO MODEL GWF_1            PACKAGE RCH-1            ON UNIT   1022 AT TIME STEP     45, STRESS PERIOD      2
 UBDSV06 SAVING              EVT IN MODEL GWF_1            PACKAGE GWF_1           CONNECTED TO MODEL GWF_1            PACKAGE EVT-1            ON UNIT   1022 AT TIME STEP     45, STRESS PERIOD      2
 UBDSV06 SAVING              SFR IN MODEL GWF_1            PACKAGE GWF_1           CONNECTED TO MODEL GWF_1            PACKAGE SFR-1            ON UNIT   1022 AT TIME STEP     45, STRESS PERIOD      2

              SFR (SFR-1)   PERIOD 2   STEP 45
 BOUNDARY        1  CELL              (1,1,1)   RATE    0.812801    
 BOUNDARY        2  CELL              (1,2,2)   RATE     2.21584    
 BOUNDARY        3  CELL              (1,3,3)   RATE     2.95136    
 BOUNDARY        4  CELL              (1,3,4)   RATE     2.66803    
 BOUNDARY        5  CELL              (1,4,5)   RATE     2.77090    
 BOUNDARY        6  CELL              (1,5,6)   RATE     2.05471    
 BOUNDARY        7  CELL              (1,6,6)   RATE     1.97592    
 BOUNDARY        8  CELL              (1,7,6)   RATE     1.37445    
 BOUNDARY        9  CELL              (1,8,6)   RATE     0.00000    
 BOUNDARY       10  CELL              (1,3,5)   RATE     1.87547    
 BOUNDARY       11  CELL              (1,3,6)   RATE     1.21255    
 BOUNDARY       12  CELL              (1,3,7)   RATE    0.365050    
 BOUNDARY       13  CELL              (1,4,8)   RATE    0.542295    
 BOUNDARY       14  CELL              (1,5,8)   RATE    0.795192    
 BOUNDARY       15  CELL              (1,6,8)   RATE    0.573126    
 BOUNDARY       16  CELL             (1,5,10)   RATE    0.905253    
 BOUNDARY       17  CELL              (1,5,9)   RATE     1.78348    
 BOUNDARY       18  CELL              (1,6,8)   RATE     1.22572    
 BOUNDARY       19  CELL              (1,6,8)   RATE   -0.314356    
 BOUNDARY       20  CELL              (1,7,7)   RATE    0.584913    
 BOUNDARY       21  CELL              (1,8,7)   RATE     1.02127    
 BOUNDARY       22  CELL              (1,8,6)   RATE    8.834305E-02
 BOUNDARY       23  CELL              (1,9,6)   RATE     1.39444    
 BOUNDARY       24  CELL             (1,10,7)   RATE     1.39780    
 BOUNDARY       25  CELL             (1,11,7)   RATE     1.33678    
 BOUNDARY       26  CELL             (1,12,7)   RATE    0.796721    
 BOUNDARY       27  CELL             (1,13,7)   RATE   -0.457858    
 BOUNDARY       28  CELL             (1,14,9)   RATE     2.68551    
 BOUNDARY       29  CELL             (1,13,8)   RATE     3.72998    
 BOUNDARY       30  CELL             (1,13,7)   RATE     2.72463    
 BOUNDARY       31  CELL             (1,13,6)   RATE    0.827098    
 BOUNDARY       32  CELL             (1,13,5)   RATE    -1.84627    
 BOUNDARY       33  CELL             (1,13,4)   RATE    -3.46871    
 BOUNDARY       34  CELL             (1,13,3)   RATE    -3.45046    
 BOUNDARY       35  CELL             (1,13,2)   RATE    -1.37034    
 BOUNDARY       36  CELL             (1,13,1)   RATE    0.175888    

 UBDSV06 SAVING     FLOW-JA-FACE IN MODEL GWF_1            PACKAGE SFR-1           CONNECTED TO MODEL GWF_1            PACKAGE SFR-1            ON UNIT   1019 AT TIME STEP     45, STRESS PERIOD      2
 UBDSV06 SAVING              GWF IN MODEL GWF_1            PACKAGE SFR-1           CONNECTED TO MODEL GWF_1            PACKAGE GWF_1            ON UNIT   1019 AT TIME STEP     45, STRESS PERIOD      2
 UBDSV06 SAVING       EXT-INFLOW IN MODEL GWF_1            PACKAGE SFR-1           CONNECTED TO MODEL GWF_1            PACKAGE SFR-1            ON UNIT   1019 AT TIME STEP     45, STRESS PERIOD      2
 UBDSV06 SAVING         RAINFALL IN MODEL GWF_1            PACKAGE SFR-1           CONNECTED TO MODEL GWF_1            PACKAGE SFR-1            ON UNIT   1019 AT TIME STEP     45, STRESS PERIOD      2
 UBDSV06 SAVING           RUNOFF IN MODEL GWF_1            PACKAGE SFR-1           CONNECTED TO MODEL GWF_1            PACKAGE SFR-1            ON UNIT   1019 AT TIME STEP     45, STRESS PERIOD      2
 UBDSV06 SAVING      EVAPORATION IN MODEL GWF_1            PACKAGE SFR-1           CONNECTED TO MODEL GWF_1            PACKAGE SFR-1            ON UNIT   1019 AT TIME STEP     45, STRESS PERIOD      2
 UBDSV06 SAVING      EXT-OUTFLOW IN MODEL GWF_1            PACKAGE SFR-1           CONNECTED TO MODEL GWF_1            PACKAGE SFR-1            ON UNIT   1019 AT TIME STEP     45, STRESS PERIOD      2
1
  HEAD IN LAYER   1 AT END OF TIME STEP  45 IN STRESS PERIOD    2
  ---------------------------------------------------------------------------

            1           2           3           4           5           6           7           8           9          10
 ........................................................................................................................
   1    1093.       1089.      1.0000E+30  1.0000E+30  1.0000E+30  1.0000E+30  1.0000E+30  1.0000E+30  1.0000E+30  1.0000E+30
   2    1090.       1087.       1081.      1.0000E+30  1.0000E+30   1071.       1070.       1069.      1.0000E+30  1.0000E+30
   3   1.0000E+30   1079.       1077.       1073.       1072.       1070.       1068.       1068.      1.0000E+30  1.0000E+30
   4    1067.       1070.       1070.       1067.       1065.       1063.       1064.       1065.       1066.      1.0000E+30
   5    1063.       1063.       1063.       1061.       1061.       1061.       1060.       1062.       1065.       1068.    
   6    1058.       1058.       1057.       1056.       1056.       1057.       1057.       1059.       1062.       1065.    
   7    1055.       1052.       1051.       1051.       1051.       1052.       1053.       1055.       1056.      1.0000E+30
   8   1.0000E+30   1046.       1045.       1045.       1046.       1047.       1048.       1050.       1050.      1.0000E+30
   9   1.0000E+30   1039.       1039.       1039.       1040.       1041.       1042.       1043.       1043.      1.0000E+30
  10   1.0000E+30   1031.       1031.       1033.       1034.       1035.       1036.       1037.       1038.       1040.    
  11   1.0000E+30   1021.       1022.       1026.       1028.       1030.       1032.       1033.       1035.      1.0000E+30
  12   1000.0       1008.       1014.       1019.       1022.       1026.       1028.       1030.       1034.      1.0000E+30
  13    993.2       998.6       1005.       1012.       1017.       1023.       1028.       1033.       1035.      1.0000E+30
  14   1.0000E+30   1003.       1008.       1012.       1018.       1023.       1028.       1034.       1038.      1.0000E+30
  15   1.0000E+30  1.0000E+30   1011.       1014.       1018.       1021.      1.0000E+30  1.0000E+30  1.0000E+30  1.0000E+30

 HEAD WILL BE SAVED ON UNIT 1021 AT END OF TIME STEP   45, STRESS PERIOD    2



 SFR (SFR-1) FLOWS   PERIOD      2   STEP       45
 ----------------------------------------------------------------------------------------------------------------------------------------------------
 REACH  REACH                 EXTERNAL      REACH       REACH       REACH       REACH       REACH       REACH     EXTERNAL      REACH      PERCENT   
  NO.   (LAYER,ROW,COLUMN)     INFLOW      INFLOW     RAINFALL     RUNOFF      LEAKAGE   EVAPORATION   OUTFLOW     OUTFLOW    IN - OUT   DIFFERENCE  
 ----------------------------------------------------------------------------------------------------------------------------------------------------
      1 (1,1,1)                25.00       0.000       0.000       0.000     -0.8128       0.000      -24.19       0.000       0.000       0.000     
      2 (1,2,2)                0.000       24.19       0.000       0.000      -2.216       0.000      -21.97       0.000      0.3553E-14  0.1469E-13 
      3 (1,3,3)                0.000       21.97       0.000       0.000      -2.951       0.000      -19.02       0.000       0.000       0.000     
      4 (1,3,4)                0.000       19.02       0.000       0.000      -2.668       0.000      -16.35       0.000       0.000       0.000     
      5 (1,4,5)                0.000       8.176       0.000       0.000      -2.771       0.000      -5.405       0.000       0.000       0.000     
      6 (1,5,6)                0.000       5.405       0.000       0.000      -2.055       0.000      -3.350       0.000       0.000       0.000     
      7 (1,6,6)                0.000       3.350       0.000       0.000      -1.976       0.000      -1.374       0.000       0.000       0.000     
      8 (1,7,6)                0.000       1.374       0.000       0.000      -1.374       0.000       0.000       0.000       0.000       0.000     
      9 (1,8,6)                0.000       0.000       0.000       0.000       0.000       0.000       0.000       0.000       0.000       0.000     
     10 (1,3,5)                0.000       8.176       0.000       0.000      -1.875       0.000      -6.301       0.000       0.000       0.000     
     11 (1,3,6)                0.000       6.301       0.000       0.000      -1.213       0.000      -5.088       0.000       0.000       0.000     
     12 (1,3,7)                0.000       5.088       0.000       0.000     -0.3651       0.000      -4.723       0.000       0.000       0.000     
     13 (1,4,8)                0.000       4.723       0.000       0.000     -0.5423       0.000      -4.181       0.000       0.000       0.000     
     14 (1,5,8)                0.000       4.181       0.000       0.000     -0.7952       0.000      -3.385       0.000       0.000       0.000     
     15 (1,6,8)                0.000       3.385       0.000       0.000     -0.5731       0.000      -2.812       0.000       0.000       0.000     
     16 (1,5,10)               10.00       0.000       0.000       0.000     -0.9053       0.000      -9.095       0.000       0.000       0.000     
     17 (1,5,9)                0.000       9.095       0.000       0.000      -1.783       0.000      -7.311       0.000       0.000       0.000     
     18 (1,6,8)                0.000       7.311       0.000       0.000      -1.226       0.000      -6.086       0.000       0.000       0.000     
     19 (1,6,8)                0.000       8.898       0.000       0.000      0.3144       0.000      -9.212       0.000       0.000       0.000     
     20 (1,7,7)                0.000       9.212       0.000       0.000     -0.5849       0.000      -8.627       0.000       0.000       0.000     
     21 (1,8,7)                0.000       8.627       0.000       0.000      -1.021       0.000      -7.606       0.000       0.000       0.000     
     22 (1,8,6)                0.000       7.606       0.000       0.000     -0.8834E-01   0.000      -7.518       0.000       0.000       0.000     
     23 (1,9,6)                0.000       7.518       0.000       0.000      -1.394       0.000      -6.123       0.000       0.000       0.000     
     24 (1,10,7)               0.000       6.123       0.000       0.000      -1.398       0.000      -4.725       0.000       0.000       0.000     
     25 (1,11,7)               0.000       4.725       0.000       0.000      -1.337       0.000      -3.389       0.000       0.000       0.000     
     26 (1,12,7)               0.000       3.389       0.000       0.000     -0.7967       0.000      -2.592       0.000       0.000       0.000     
     27 (1,13,7)               0.000       2.592       0.000       0.000      0.4579       0.000      -3.050       0.000       0.000       0.000     
     28 (1,14,9)               150.0       0.000       0.000       0.000      -2.686       0.000      -147.3       0.000       0.000       0.000     
     29 (1,13,8)               0.000       147.3       0.000       0.000      -3.730       0.000      -143.6       0.000       0.000       0.000     
     30 (1,13,7)               0.000       143.6       0.000       0.000      -2.725       0.000      -140.9       0.000       0.000       0.000     
     31 (1,13,6)               0.000       143.9       0.000       0.000     -0.8271       0.000      -143.1       0.000       0.000       0.000     
     32 (1,13,5)               0.000       143.1       0.000       0.000       1.846       0.000      -144.9       0.000       0.000       0.000     
     33 (1,13,4)               0.000       144.9       0.000       0.000       3.469       0.000      -148.4       0.000       0.000       0.000     
     34 (1,13,3)               0.000       148.4       0.000       0.000       3.450       0.000      -151.8       0.000       0.000       0.000     
     35 (1,13,2)               0.000       151.8       0.000       0.000       1.370       0.000      -153.2       0.000       0.000       0.000     
     36 (1,13,1)               0.000       153.2       0.000       0.000     -0.1759       0.000       0.000      -153.0       0.000       0.000     


  SFR-1 BUDGET FOR ENTIRE MODEL AT END OF TIME STEP   45, STRESS PERIOD   2
  ------------------------------------------------------------------------------

     CUMULATIVE SFR-1      L**3       RATES FOR THIS TIME STEP      L**3/T
     ------------------                 ------------------------

           IN:                                      IN:
           ---                                      ---
          EXT-INFLOW =472208849560.5300            EXT-INFLOW =         185.0000
            RAINFALL =           0.0000              RAINFALL =           0.0000
              RUNOFF =           0.0000                RUNOFF =           0.0000
                 GWF =  6150756952.8291                   GWF =          10.9080
         EVAPORATION =           0.0000           EVAPORATION =           0.0000
         EXT-OUTFLOW =           0.0000           EXT-OUTFLOW =           0.0000

            TOTAL IN =478359606513.3592              TOTAL IN =         195.9080

          OUT:                                     OUT:
          ----                                     ----
          EXT-INFLOW =           0.0000            EXT-INFLOW =           0.0000
            RAINFALL =           0.0000              RAINFALL =           0.0000
              RUNOFF =           0.0000                RUNOFF =           0.0000
                 GWF =200749256954.8747                   GWF =          42.8655
         EVAPORATION =           0.0000           EVAPORATION =           0.0000
         EXT-OUTFLOW =277610349558.4844           EXT-OUTFLOW =         153.0424

           TOTAL OUT =478359606513.3591             TOTAL OUT =         195.9080

            IN - OUT =       6.1035E-05              IN - OUT =           0.0000

 PERCENT DISCREPANCY =           0.00     PERCENT DISCREPANCY =           0.00



  VOLUME BUDGET FOR ENTIRE MODEL AT END OF TIME STEP   45, STRESS PERIOD   2
  ---------------------------------------------------------------------------------------------------

     CUMULATIVE VOLUME      L**3       RATES FOR THIS TIME STEP      L**3/T          PACKAGE NAME    
     ------------------                 ------------------------                     ----------------

           IN:                                      IN:
           ---                                      ---
              STO-SS =   258189090.0212                STO-SS =           0.0000     STORAGE         
              STO-SY = 30604404446.3969                STO-SY =           0.0000     STORAGE         
                 WEL =           0.0000                   WEL =           0.0000     WEL-1           
                 GHB =   651114403.2271                   GHB =           0.2528     GHB-1           
                 RCH =  4578511480.5362                   RCH =           1.7938     RCH-1           
                 EVT =           0.0000                   EVT =           0.0000     EVT-1           
                 SFR =200749256519.5138                   SFR =          42.8655     SFR-1           

            TOTAL IN =236841475939.6951              TOTAL IN =          44.9120

          OUT:                                     OUT:
          ----                                     ----
              STO-SS =   256148464.6102                STO-SS =       1.1736E-02     STORAGE         
              STO-SY = 30391709586.3450                STO-SY =           1.1327     STORAGE         
                 WEL =157788000000.0000                   WEL =           0.0000     WEL-1           
                 GHB =   471525149.8190                   GHB =           0.1989     GHB-1           
                 RCH =           0.0000                   RCH =           0.0000     RCH-1           
                 EVT = 41783336233.4486                   EVT =          32.6607     EVT-1           
                 SFR =  6150757726.0699                   SFR =          10.9080     SFR-1           

           TOTAL OUT =236841477160.2926             TOTAL OUT =          44.9120

            IN - OUT =       -1220.5975              IN - OUT =       1.2775E-06

 PERCENT DISCREPANCY =          -0.00     PERCENT DISCREPANCY =           0.00




         TIME SUMMARY AT END OF TIME STEP   45 IN STRESS PERIOD    2
                    SECONDS     MINUTES      HOURS       DAYS        YEARS
                    -----------------------------------------------------------
   TIME STEP LENGTH 8.98325E+07 1.49721E+06  24953.      1039.7      2.8466    
 STRESS PERIOD TIME 9.74600E+08 1.62433E+07 2.70722E+05  11280.      30.883    
         TOTAL TIME 2.55248E+09 4.25413E+07 7.09022E+05  29543.      80.883    
 UBDSV1 SAVING           STO-SS ON UNIT   1022 AT TIME STEP     50, STRESS PERIOD      2
 UBDSV1 SAVING           STO-SY ON UNIT   1022 AT TIME STEP     50, STRESS PERIOD      2
 UBDSV1 SAVING     FLOW-JA-FACE ON UNIT   1022 AT TIME STEP     50, STRESS PERIOD      2
 UBDSV06 SAVING              WEL IN MODEL GWF_1            PACKAGE GWF_1           CONNECTED TO MODEL GWF_1            PACKAGE WEL-1            ON UNIT   1022 AT TIME STEP     50, STRESS PERIOD      2
 UBDSV06 SAVING              GHB IN MODEL GWF_1            PACKAGE GWF_1           CONNECTED TO MODEL GWF_1            PACKAGE GHB-1            ON UNIT   1022 AT TIME STEP     50, STRESS PERIOD      2
 UBDSV06 SAVING              RCH IN MODEL GWF_1            PACKAGE GWF_1           CONNECTED TO MODEL GWF_1            PACKAGE RCH-1            ON UNIT   1022 AT TIME STEP     50, STRESS PERIOD      2
 UBDSV06 SAVING              EVT IN MODEL GWF_1            PACKAGE GWF_1           CONNECTED TO MODEL GWF_1            PACKAGE EVT-1            ON UNIT   1022 AT TIME STEP     50, STRESS PERIOD      2
 UBDSV06 SAVING              SFR IN MODEL GWF_1            PACKAGE GWF_1           CONNECTED TO MODEL GWF_1            PACKAGE SFR-1            ON UNIT   1022 AT TIME STEP     50, STRESS PERIOD      2

              SFR (SFR-1)   PERIOD 2   STEP 50
 BOUNDARY        1  CELL              (1,1,1)   RATE    0.796323    
 BOUNDARY        2  CELL              (1,2,2)   RATE     2.13591    
 BOUNDARY        3  CELL              (1,3,3)   RATE     2.95357    
 BOUNDARY        4  CELL              (1,3,4)   RATE     2.67015    
 BOUNDARY        5  CELL              (1,4,5)   RATE     2.77262    
 BOUNDARY        6  CELL              (1,5,6)   RATE     2.05623    
 BOUNDARY        7  CELL              (1,6,6)   RATE     1.97778    
 BOUNDARY        8  CELL              (1,7,6)   RATE     1.41540    
 BOUNDARY        9  CELL              (1,8,6)   RATE     0.00000    
 BOUNDARY       10  CELL              (1,3,5)   RATE     1.82650    
 BOUNDARY       11  CELL              (1,3,6)   RATE     1.18078    
 BOUNDARY       12  CELL              (1,3,7)   RATE    0.335608    
 BOUNDARY       13  CELL              (1,4,8)   RATE    0.514319    
 BOUNDARY       14  CELL              (1,5,8)   RATE    0.749585    
 BOUNDARY       15  CELL              (1,6,8)   RATE    0.557681    
 BOUNDARY       16  CELL             (1,5,10)   RATE    0.905253    
 BOUNDARY       17  CELL              (1,5,9)   RATE     1.78348    
 BOUNDARY       18  CELL              (1,6,8)   RATE     1.22572    
 BOUNDARY       19  CELL              (1,6,8)   RATE   -0.351693    
 BOUNDARY       20  CELL              (1,7,7)   RATE    0.536189    
 BOUNDARY       21  CELL              (1,8,7)   RATE    0.989136    
 BOUNDARY       22  CELL              (1,8,6)   RATE    6.202583E-02
 BOUNDARY       23  CELL              (1,9,6)   RATE     1.36515    
 BOUNDARY       24  CELL             (1,10,7)   RATE     1.37353    
 BOUNDARY       25  CELL             (1,11,7)   RATE     1.32393    
 BOUNDARY       26  CELL             (1,12,7)   RATE    0.797612    
 BOUNDARY       27  CELL             (1,13,7)   RATE   -0.451476    
 BOUNDARY       28  CELL             (1,14,9)   RATE     2.68036    
 BOUNDARY       29  CELL             (1,13,8)   RATE     3.71648    
 BOUNDARY       30  CELL             (1,13,7)   RATE     2.70254    
 BOUNDARY       31  CELL             (1,13,6)   RATE    0.812301    
 BOUNDARY       32  CELL             (1,13,5)   RATE    -1.86372    
 BOUNDARY       33  CELL             (1,13,4)   RATE    -3.48544    
 BOUNDARY       34  CELL             (1,13,3)   RATE    -3.46422    
 BOUNDARY       35  CELL             (1,13,2)   RATE    -1.37731    
 BOUNDARY       36  CELL             (1,13,1)   RATE    0.173707    

 UBDSV06 SAVING     FLOW-JA-FACE IN MODEL GWF_1            PACKAGE SFR-1           CONNECTED TO MODEL GWF_1            PACKAGE SFR-1            ON UNIT   1019 AT TIME STEP     50, STRESS PERIOD      2
 UBDSV06 SAVING              GWF IN MODEL GWF_1            PACKAGE SFR-1           CONNECTED TO MODEL GWF_1            PACKAGE GWF_1            ON UNIT   1019 AT TIME STEP     50, STRESS PERIOD      2
 UBDSV06 SAVING       EXT-INFLOW IN MODEL GWF_1            PACKAGE SFR-1           CONNECTED TO MODEL GWF_1            PACKAGE SFR-1            ON UNIT   1019 AT TIME STEP     50, STRESS PERIOD      2
 UBDSV06 SAVING         RAINFALL IN MODEL GWF_1            PACKAGE SFR-1           CONNECTED TO MODEL GWF_1            PACKAGE SFR-1            ON UNIT   1019 AT TIME STEP     50, STRESS PERIOD      2
 UBDSV06 SAVING           RUNOFF IN MODEL GWF_1            PACKAGE SFR-1           CONNECTED TO MODEL GWF_1            PACKAGE SFR-1            ON UNIT   1019 AT TIME STEP     50, STRESS PERIOD      2
 UBDSV06 SAVING      EVAPORATION IN MODEL GWF_1            PACKAGE SFR-1           CONNECTED TO MODEL GWF_1            PACKAGE SFR-1            ON UNIT   1019 AT TIME STEP     50, STRESS PERIOD      2
 UBDSV06 SAVING      EXT-OUTFLOW IN MODEL GWF_1            PACKAGE SFR-1           CONNECTED TO MODEL GWF_1            PACKAGE SFR-1            ON UNIT   1019 AT TIME STEP     50, STRESS PERIOD      2
1
  HEAD IN LAYER   1 AT END OF TIME STEP  50 IN STRESS PERIOD    2
  ---------------------------------------------------------------------------

            1           2           3           4           5           6           7           8           9          10
 ........................................................................................................................
   1    1093.       1089.      1.0000E+30  1.0000E+30  1.0000E+30  1.0000E+30  1.0000E+30  1.0000E+30  1.0000E+30  1.0000E+30
   2    1090.       1087.       1081.      1.0000E+30  1.0000E+30   1071.       1070.       1070.      1.0000E+30  1.0000E+30
   3   1.0000E+30   1079.       1078.       1074.       1072.       1070.       1068.       1068.      1.0000E+30  1.0000E+30
   4    1069.       1071.       1070.       1067.       1065.       1064.       1064.       1065.       1066.      1.0000E+30
   5    1065.       1064.       1063.       1062.       1061.       1061.       1060.       1062.       1066.       1068.    
   6    1060.       1058.       1057.       1057.       1056.       1057.       1057.       1059.       1062.       1066.    
   7    1056.       1053.       1052.       1051.       1051.       1052.       1053.       1056.       1057.      1.0000E+30
   8   1.0000E+30   1046.       1046.       1046.       1046.       1047.       1048.       1050.       1050.      1.0000E+30
   9   1.0000E+30   1039.       1039.       1039.       1040.       1041.       1042.       1043.       1044.      1.0000E+30
  10   1.0000E+30   1031.       1032.       1033.       1034.       1035.       1036.       1037.       1039.       1041.    
  11   1.0000E+30   1021.       1023.       1026.       1028.       1030.       1032.       1033.       1035.      1.0000E+30
  12    1000.       1008.       1014.       1019.       1022.       1026.       1028.       1030.       1034.      1.0000E+30
  13    993.2       998.7       1005.       1012.       1017.       1023.       1028.       1033.       1035.      1.0000E+30
  14   1.0000E+30   1003.       1008.       1012.       1018.       1023.       1028.       1034.       1038.      1.0000E+30
  15   1.0000E+30  1.0000E+30   1011.       1014.       1018.       1021.      1.0000E+30  1.0000E+30  1.0000E+30  1.0000E+30

 HEAD WILL BE SAVED ON UNIT 1021 AT END OF TIME STEP   50, STRESS PERIOD    2



 SFR (SFR-1) FLOWS   PERIOD      2   STEP       50
 ----------------------------------------------------------------------------------------------------------------------------------------------------
 REACH  REACH                 EXTERNAL      REACH       REACH       REACH       REACH       REACH       REACH     EXTERNAL      REACH      PERCENT   
  NO.   (LAYER,ROW,COLUMN)     INFLOW      INFLOW     RAINFALL     RUNOFF      LEAKAGE   EVAPORATION   OUTFLOW     OUTFLOW    IN - OUT   DIFFERENCE  
 ----------------------------------------------------------------------------------------------------------------------------------------------------
      1 (1,1,1)                25.00       0.000       0.000       0.000     -0.7963       0.000      -24.20       0.000       0.000       0.000     
      2 (1,2,2)                0.000       24.20       0.000       0.000      -2.136       0.000      -22.07       0.000       0.000       0.000     
      3 (1,3,3)                0.000       22.07       0.000       0.000      -2.954       0.000      -19.11       0.000       0.000       0.000     
      4 (1,3,4)                0.000       19.11       0.000       0.000      -2.670       0.000      -16.44       0.000       0.000       0.000     
      5 (1,4,5)                0.000       8.222       0.000       0.000      -2.773       0.000      -5.449       0.000       0.000       0.000     
      6 (1,5,6)                0.000       5.449       0.000       0.000      -2.056       0.000      -3.393       0.000       0.000       0.000     
      7 (1,6,6)                0.000       3.393       0.000       0.000      -1.978       0.000      -1.415       0.000       0.000       0.000     
      8 (1,7,6)                0.000       1.415       0.000       0.000      -1.415       0.000       0.000       0.000       0.000       0.000     
      9 (1,8,6)                0.000       0.000       0.000       0.000       0.000       0.000       0.000       0.000       0.000       0.000     
     10 (1,3,5)                0.000       8.222       0.000       0.000      -1.826       0.000      -6.396       0.000       0.000       0.000     
     11 (1,3,6)                0.000       6.396       0.000       0.000      -1.181       0.000      -5.215       0.000       0.000       0.000     
     12 (1,3,7)                0.000       5.215       0.000       0.000     -0.3356       0.000      -4.879       0.000       0.000       0.000     
     13 (1,4,8)                0.000       4.879       0.000       0.000     -0.5143       0.000      -4.365       0.000       0.000       0.000     
     14 (1,5,8)                0.000       4.365       0.000       0.000     -0.7496       0.000      -3.615       0.000       0.000       0.000     
     15 (1,6,8)                0.000       3.615       0.000       0.000     -0.5577       0.000      -3.058       0.000       0.000       0.000     
     16 (1,5,10)               10.00       0.000       0.000       0.000     -0.9053       0.000      -9.095       0.000       0.000       0.000     
     17 (1,5,9)                0.000       9.095       0.000       0.000      -1.783       0.000      -7.311       0.000       0.000       0.000     
     18 (1,6,8)                0.000       7.311       0.000       0.000      -1.226       0.000      -6.086       0.000       0.000       0.000     
     19 (1,6,8)                0.000       9.143       0.000       0.000      0.3517       0.000      -9.495       0.000       0.000       0.000     
     20 (1,7,7)                0.000       9.495       0.000       0.000     -0.5362       0.000      -8.959       0.000       0.000       0.000     
     21 (1,8,7)                0.000       8.959       0.000       0.000     -0.9891       0.000      -7.969       0.000       0.000       0.000     
     22 (1,8,6)                0.000       7.969       0.000       0.000     -0.6203E-01   0.000      -7.907       0.000       0.000       0.000     
     23 (1,9,6)                0.000       7.907       0.000       0.000      -1.365       0.000      -6.542       0.000       0.000       0.000     
     24 (1,10,7)               0.000       6.542       0.000       0.000      -1.374       0.000      -5.169       0.000       0.000       0.000     
     25 (1,11,7)               0.000       5.169       0.000       0.000      -1.324       0.000      -3.845       0.000       0.000       0.000     
     26 (1,12,7)               0.000       3.845       0.000       0.000     -0.7976       0.000      -3.047       0.000       0.000       0.000     
     27 (1,13,7)               0.000       3.047       0.000       0.000      0.4515       0.000      -3.499       0.000       0.000       0.000     
     28 (1,14,9)               150.0       0.000       0.000       0.000      -2.680       0.000      -147.3       0.000       0.000       0.000     
     29 (1,13,8)               0.000       147.3       0.000       0.000      -3.716       0.000      -143.6       0.000       0.000       0.000     
     30 (1,13,7)               0.000       143.6       0.000       0.000      -2.703       0.000      -140.9       0.000       0.000       0.000     
     31 (1,13,6)               0.000       144.4       0.000       0.000     -0.8123       0.000      -143.6       0.000       0.000       0.000     
     32 (1,13,5)               0.000       143.6       0.000       0.000       1.864       0.000      -145.5       0.000       0.000       0.000     
     33 (1,13,4)               0.000       145.5       0.000       0.000       3.485       0.000      -148.9       0.000       0.000       0.000     
     34 (1,13,3)               0.000       148.9       0.000       0.000       3.464       0.000      -152.4       0.000       0.000       0.000     
     35 (1,13,2)               0.000       152.4       0.000       0.000       1.377       0.000      -153.8       0.000       0.000       0.000     
     36 (1,13,1)               0.000       153.8       0.000       0.000     -0.1737       0.000       0.000      -153.6       0.000       0.000     


  SFR-1 BUDGET FOR ENTIRE MODEL AT END OF TIME STEP   50, STRESS PERIOD   2
  ------------------------------------------------------------------------------

     CUMULATIVE SFR-1      L**3       RATES FOR THIS TIME STEP      L**3/T
     ------------------                 ------------------------

           IN:                                      IN:
           ---                                      ---
          EXT-INFLOW =583815599999.9999            EXT-INFLOW =         185.0000
            RAINFALL =           0.0000              RAINFALL =           0.0000
              RUNOFF =           0.0000                RUNOFF =           0.0000
                 GWF = 12777690415.7885                   GWF =          10.9938
         EVAPORATION =           0.0000           EVAPORATION =           0.0000
         EXT-OUTFLOW =           0.0000           EXT-OUTFLOW =           0.0000

            TOTAL IN =596593290415.7883              TOTAL IN =         195.9938

          OUT:                                     OUT:
          ----                                     ----
          EXT-INFLOW =           0.0000            EXT-INFLOW =           0.0000
            RAINFALL =           0.0000              RAINFALL =           0.0000
              RUNOFF =           0.0000                RUNOFF =           0.0000
                 GWF =226352568216.4116                   GWF =          42.3899
         EVAPORATION =           0.0000           EVAPORATION =           0.0000
         EXT-OUTFLOW =370240722199.3768           EXT-OUTFLOW =         153.6040

           TOTAL OUT =596593290415.7883             TOTAL OUT =         195.9938

            IN - OUT =           0.0000              IN - OUT =           0.0000

 PERCENT DISCREPANCY =           0.00     PERCENT DISCREPANCY =           0.00



  VOLUME BUDGET FOR ENTIRE MODEL AT END OF TIME STEP   50, STRESS PERIOD   2
  ---------------------------------------------------------------------------------------------------

     CUMULATIVE VOLUME      L**3       RATES FOR THIS TIME STEP      L**3/T          PACKAGE NAME    
     ------------------                 ------------------------                     ----------------

           IN:                                      IN:
           ---                                      ---
              STO-SS =   258189090.0212                STO-SS =           0.0000     STORAGE         
              STO-SY = 30604404446.3969                STO-SY =           0.0000     STORAGE         
                 WEL =           0.0000                   WEL =           0.0000     WEL-1           
                 GHB =   803578097.9119                   GHB =           0.2527     GHB-1           
                 RCH =  5660644500.0000                   RCH =           1.7938     RCH-1           
                 EVT =           0.0000                   EVT =           0.0000     EVT-1           
                 SFR =226352559633.6948                   SFR =          42.3899     SFR-1           

            TOTAL IN =263679375768.0247              TOTAL IN =          44.4363

          OUT:                                     OUT:
          ----                                     ----
              STO-SS =   256983841.1457                STO-SS =       1.0582E-04     STORAGE         
              STO-SY = 30469893835.1202                STO-SY =       9.6915E-03     STORAGE         
                 WEL =157788000000.0000                   WEL =           0.0000     WEL-1           
                 GHB =   591614763.2921                   GHB =           0.1991     GHB-1           
                 RCH =           0.0000                   RCH =           0.0000     RCH-1           
                 EVT = 61795182067.7641                   EVT =          33.2336     EVT-1           
                 SFR = 12777700586.4153                   SFR =          10.9939     SFR-1           

           TOTAL OUT =263679375093.7375             TOTAL OUT =          44.4363

            IN - OUT =         674.2872              IN - OUT =       2.5273E-06

 PERCENT DISCREPANCY =           0.00     PERCENT DISCREPANCY =           0.00




         TIME SUMMARY AT END OF TIME STEP   50 IN STRESS PERIOD    2
                    SECONDS     MINUTES      HOURS       DAYS        YEARS
                    -----------------------------------------------------------
   TIME STEP LENGTH 1.44676E+08 2.41127E+06  40188.      1674.5      4.5845    
 STRESS PERIOD TIME 1.57788E+09 2.62980E+07 4.38300E+05  18262.      50.000    
         TOTAL TIME 3.15576E+09 5.25960E+07 8.76600E+05  36525.      100.00    
